examples/opendss/lines.dss
new line.80_2665457_13_0896901_node__80_2659042_13_0896796_node bus1=80_2665457_13_0896901_node.1.2.3 bus2=80_2659042_13_0896796_node.1.2.3 length=69.57759434202927 geometry=5598c4c7-5058-4951-80f9-dfb89abcfcb1_linegeometry units=m

new line.80_2665457_13_0896901_node__80_2665125_13_0888942_node bus1=80_2665457_13_0896901_node.1.2.3 bus2=80_2665125_13_0888942_node.1.2.3 length=88.12498912636627 geometry=5598c4c7-5058-4951-80f9-dfb89abcfcb1_linegeometry units=m

new line.80_27337657231554_13_081512941483856_node__80_27429163615777_13_081624320741927_node bus1=80_27337657231554_13_081512941483856_node.1.2.3 bus2=80_27429163615777_13_081624320741927_node.1.2.3 length=100.00002168934361 geometry=5598c4c7-5058-4951-80f9-dfb89abcfcb1_linegeometry units=m

new line.80_27337657231554_13_081512941483856_node__80_2733598_13_0815109_node bus1=80_27337657231554_13_081512941483856_node.1.2.3 bus2=80_2733598_13_0815109_node.1.2.3 length=1.8329128726310582 geometry=5598c4c7-5058-4951-80f9-dfb89abcfcb1_linegeometry units=m

new line.80_26382944913172_13_085545908154089_node__80_2629079_13_0855773_node bus1=80_26382944913172_13_085545908154089_node.1.2.3 bus2=80_2629079_13_0855773_node.1.2.3 length=99.99999756261631 geometry=5598c4c7-5058-4951-80f9-dfb89abcfcb1_linegeometry units=m

new line.80_26382944913172_13_085545908154089_node__80_2641849_13_0855338_node bus1=80_26382944913172_13_085545908154089_node.1.2.3 bus2=80_2641849_13_0855338_node.1.2.3 length=38.571019006114845 geometry=5598c4c7-5058-4951-80f9-dfb89abcfcb1_linegeometry units=m

new line.80_2723808_13_0773412_node__80_2724187_13_0776982_node bus1=80_2723808_13_0773412_node.1.2.3 bus2=80_2724187_13_0776982_node.1.2.3 length=39.7086233105628 geometry=5598c4c7-5058-4951-80f9-dfb89abcfcb1_linegeometry units=m

new line.80_2723808_13_0773412_node__80_2718366_13_0774426_node bus1=80_2723808_13_0773412_node.1.2.3 bus2=80_2718366_13_0774426_node.1.2.3 length=60.07572386487546 geometry=5598c4c7-5058-4951-80f9-dfb89abcfcb1_linegeometry units=m

new line.80_27905373406098_13_090321349809171_node__80_2789018_13_0894298_node bus1=80_27905373406098_13_090321349809171_node.1.2.3 bus2=80_2789018_13_0894298_node.1.2.3 length=100.0000001249906 geometry=5598c4c7-5058-4951-80f9-dfb89abcfcb1_linegeometry units=m

new line.80_27905373406098_13_090321349809171_node__80_2790662_13_0903945_node bus1=80_27905373406098_13_090321349809171_node.1.2.3 bus2=80_2790662_13_0903945_node.1.2.3 length=8.204834879768347 geometry=5598c4c7-5058-4951-80f9-dfb89abcfcb1_linegeometry units=m

new line.80_2666967_13_0774536_node__80_2665597_13_0769946_node bus1=80_2666967_13_0774536_node.1.2.3 bus2=80_2665597_13_0769946_node.1.2.3 length=52.908711597048914 geometry=5598c4c7-5058-4951-80f9-dfb89abcfcb1_linegeometry units=m

new line.80_2666967_13_0774536_node__80_2670286_13_0781722_node bus1=80_2666967_13_0774536_node.1.2.3 bus2=80_2670286_13_0781722_node.1.2.3 length=87.26858543782475 geometry=5598c4c7-5058-4951-80f9-dfb89abcfcb1_linegeometry units=m

new line.80_2696341_13_0850912_node__80_2695028_13_0847626_node bus1=80_2696341_13_0850912_node.1.2.3 bus2=80_2695028_13_0847626_node.1.2.3 length=39.042609450330936 geometry=5598c4c7-5058-4951-80f9-dfb89abcfcb1_linegeometry units=m

new line.80_2696341_13_0850912_node__80_26874634357885_13_085335609729889_htnode bus1=80_2696341_13_0850912_node.1.2.3 bus2=80_26874634357885_13_085335609729889_htnode.1.2.3 length=100.00008086005832 geometry=5598c4c7-5058-4951-80f9-dfb89abcfcb1_linegeometry units=m

new line.80_270067_13_0747455_node__80_2702071_13_075238_node bus1=80_270067_13_0747455_node.1.2.3 bus2=80_2702071_13_075238_node.1.2.3 length=56.56471884959386 geometry=5598c4c7-5058-4951-80f9-dfb89abcfcb1_linegeometry units=m

new line.80_270067_13_0747455_node__80_2695276_13_0748603_node bus1=80_270067_13_0747455_node.1.2.3 bus2=80_2695276_13_0748603_node.1.2.3 length=59.861895007471134 geometry=5598c4c7-5058-4951-80f9-dfb89abcfcb1_linegeometry units=m

new line.80_2696199_13_0824585_node__80_2700291_13_0825038_htnode bus1=80_2696199_13_0824585_node.1.2.3 bus2=80_2700291_13_0825038_htnode.1.2.3 length=44.65934344459687 geometry=5598c4c7-5058-4951-80f9-dfb89abcfcb1_linegeometry units=m

new line.80_2696199_13_0824585_node__80_2696283_13_0829503_node bus1=80_2696199_13_0824585_node.1.2.3 bus2=80_2696283_13_0829503_node.1.2.3 length=54.416045636218136 geometry=5598c4c7-5058-4951-80f9-dfb89abcfcb1_linegeometry units=m

new line.80_2679937_13_0752581_node__80_2681286063146_13_075221344522124_node bus1=80_2679937_13_0752581_node.1.2.3 bus2=80_2681286063146_13_075221344522124_node.1.2.3 length=15.185413388893084 geometry=5598c4c7-5058-4951-80f9-dfb89abcfcb1_linegeometry units=m

new line.80_2679937_13_0752581_node__80_2670877772183_13_075426507448451_node bus1=80_2679937_13_0752581_node.1.2.3 bus2=80_2670877772183_13_075426507448451_node.1.2.3 length=100.00000021255839 geometry=5598c4c7-5058-4951-80f9-dfb89abcfcb1_linegeometry units=m

new line.80_2767831_13_0869638_node__80_27665028099061_13_086975703292442_node bus1=80_2767831_13_0869638_node.1.2.3 bus2=80_27665028099061_13_086975703292442_node.1.2.3 length=14.463876809308086 geometry=5598c4c7-5058-4951-80f9-dfb89abcfcb1_linegeometry units=m

new line.80_2767831_13_0869638_node__80_2768654_13_0869611_node bus1=80_2767831_13_0869638_node.1.2.3 bus2=80_2768654_13_0869611_node.1.2.3 length=8.930173595285904 geometry=5598c4c7-5058-4951-80f9-dfb89abcfcb1_linegeometry units=m

new line.80_2760133_13_0878423_htnode__80_2759853_13_0880744_node bus1=80_2760133_13_0878423_htnode.1.2.3 bus2=80_2759853_13_0880744_node.1.2.3 length=25.85642760778104 geometry=5598c4c7-5058-4951-80f9-dfb89abcfcb1_linegeometry units=m

new line.80_2635086_13_0781447_node__80_2634224_13_0780731_node bus1=80_2635086_13_0781447_node.1.2.3 bus2=80_2634224_13_0780731_node.1.2.3 length=12.253115085686062 geometry=5598c4c7-5058-4951-80f9-dfb89abcfcb1_linegeometry units=m

new line.80_2635086_13_0781447_node__80_26382217027212_13_077516032186123_node bus1=80_2635086_13_0781447_node.1.2.3 bus2=80_26382217027212_13_077516032186123_node.1.2.3 length=77.41905334978138 geometry=5598c4c7-5058-4951-80f9-dfb89abcfcb1_linegeometry units=m

new line.80_2668745_13_0822961_node__80_2668734_13_082636_node bus1=80_2668745_13_0822961_node.1.2.3 bus2=80_2668734_13_082636_node.1.2.3 length=37.60373047724219 geometry=5598c4c7-5058-4951-80f9-dfb89abcfcb1_linegeometry units=m

new line.80_2668745_13_0822961_node__80_26691254203276_13_081392965302964_node bus1=80_2668745_13_0822961_node.1.2.3 bus2=80_26691254203276_13_081392965302964_node.1.2.3 length=100.0000009731326 geometry=5598c4c7-5058-4951-80f9-dfb89abcfcb1_linegeometry units=m

new line.80_2668745_13_0822961_node__80_26611630642051_13_082810533666317_node bus1=80_2668745_13_0822961_node.1.2.3 bus2=80_26611630642051_13_082810533666317_node.1.2.3 length=100.00000744697873 geometry=5598c4c7-5058-4951-80f9-dfb89abcfcb1_linegeometry units=m

new line.80_26400594301415_13_084647082128997_node__80_2641849_13_0855338_node bus1=80_26400594301415_13_084647082128997_node.1.2.3 bus2=80_2641849_13_0855338_node.1.2.3 length=99.99999717778573 geometry=5598c4c7-5058-4951-80f9-dfb89abcfcb1_linegeometry units=m

new line.80_26400594301415_13_084647082128997_node__80_2638588_13_083918_node bus1=80_26400594301415_13_084647082128997_node.1.2.3 bus2=80_2638588_13_083918_node.1.2.3 length=82.2225623124743 geometry=5598c4c7-5058-4951-80f9-dfb89abcfcb1_linegeometry units=m

new line.80_26611630642051_13_082810533666317_node__80_266035_13_0828657_node bus1=80_26611630642051_13_082810533666317_node.1.2.3 bus2=80_266035_13_0828657_node.1.2.3 length=10.723694614446766 geometry=5598c4c7-5058-4951-80f9-dfb89abcfcb1_linegeometry units=m

new line.80_266491_13_0883795_node__80_2670385_13_0883335_node bus1=80_266491_13_0883795_node.1.2.3 bus2=80_2670385_13_0883335_node.1.2.3 length=59.592016181465134 geometry=5598c4c7-5058-4951-80f9-dfb89abcfcb1_linegeometry units=m

new line.80_266491_13_0883795_node__80_2665125_13_0888942_node bus1=80_266491_13_0883795_node.1.2.3 bus2=80_2665125_13_0888942_node.1.2.3 length=56.989616001455666 geometry=5598c4c7-5058-4951-80f9-dfb89abcfcb1_linegeometry units=m

new line.80_26694_13_0904605_node__80_2662528_13_0903822_node bus1=80_26694_13_0904605_node.1.2.3 bus2=80_2662528_13_0903822_node.1.2.3 length=75.02540193852775 geometry=5598c4c7-5058-4951-80f9-dfb89abcfcb1_linegeometry units=m

new line.80_26694_13_0904605_node__80_2669631_13_0908592_node bus1=80_26694_13_0904605_node.1.2.3 bus2=80_2669631_13_0908592_node.1.2.3 length=44.179762101018696 geometry=5598c4c7-5058-4951-80f9-dfb89abcfcb1_linegeometry units=m

new line.80_2744611_13_0824595_node__80_27355149078845_13_08260774173497_node bus1=80_2744611_13_0824595_node.1.2.3 bus2=80_27355149078845_13_08260774173497_node.1.2.3 length=100.00001576845523 geometry=5598c4c7-5058-4951-80f9-dfb89abcfcb1_linegeometry units=m

new line.80_2744611_13_0824595_node__80_27537964939911_13_082380324502173_node bus1=80_2744611_13_0824595_node.1.2.3 bus2=80_27537964939911_13_082380324502173_node.1.2.3 length=99.99998517982418 geometry=5598c4c7-5058-4951-80f9-dfb89abcfcb1_linegeometry units=m

new line.80_2659216_13_087856_node__80_26591297571943_13_088759864255085_node bus1=80_2659216_13_087856_node.1.2.3 bus2=80_26591297571943_13_088759864255085_node.1.2.3 length=99.99999645978376 geometry=5598c4c7-5058-4951-80f9-dfb89abcfcb1_linegeometry units=m

new line.80_2659216_13_087856_node__80_2659222_13_0875999_node bus1=80_2659216_13_087856_node.1.2.3 bus2=80_2659222_13_0875999_node.1.2.3 length=28.332733831538253 geometry=5598c4c7-5058-4951-80f9-dfb89abcfcb1_linegeometry units=m

new line.80_26442369087772_13_090167244451738_node__80_2653456_13_0901478_node bus1=80_26442369087772_13_090167244451738_node.1.2.3 bus2=80_2653456_13_0901478_node.1.2.3 length=100.00000126027498 geometry=5598c4c7-5058-4951-80f9-dfb89abcfcb1_linegeometry units=m

new line.80_26442369087772_13_090167244451738_node__80_2641271_13_0901735_node bus1=80_26442369087772_13_090167244451738_node.1.2.3 bus2=80_2641271_13_0901735_node.1.2.3 length=32.17137773467858 geometry=5598c4c7-5058-4951-80f9-dfb89abcfcb1_linegeometry units=m

new line.80_267394_13_0908438_node__80_2669631_13_0908592_node bus1=80_267394_13_0908438_node.1.2.3 bus2=80_2669631_13_0908592_node.1.2.3 length=46.7600671559746 geometry=5598c4c7-5058-4951-80f9-dfb89abcfcb1_linegeometry units=m

new line.80_267394_13_0908438_node__80_2679033_13_0908057_node bus1=80_267394_13_0908438_node.1.2.3 bus2=80_2679033_13_0908057_node.1.2.3 length=55.39173102962239 geometry=5598c4c7-5058-4951-80f9-dfb89abcfcb1_linegeometry units=m

new line.80_2665597_13_0769946_node__80_2663738_13_0762153_node bus1=80_2665597_13_0769946_node.1.2.3 bus2=80_2663738_13_0762153_node.1.2.3 length=88.54078309595371 geometry=5598c4c7-5058-4951-80f9-dfb89abcfcb1_linegeometry units=m

new line.80_2725404_13_0826367_node__80_2730578_13_0826882_node bus1=80_2725404_13_0826367_node.1.2.3 bus2=80_2730578_13_0826882_node.1.2.3 length=56.39989609661178 geometry=5598c4c7-5058-4951-80f9-dfb89abcfcb1_linegeometry units=m

new line.80_2725404_13_0826367_node__80_27182796924724_13_083210560712045_node bus1=80_2725404_13_0826367_node.1.2.3 bus2=80_27182796924724_13_083210560712045_node.1.2.3 length=100.00011734159459 geometry=5598c4c7-5058-4951-80f9-dfb89abcfcb1_linegeometry units=m

new line.80_2725404_13_0826367_node__80_2731701_13_0820876_node bus1=80_2725404_13_0826367_node.1.2.3 bus2=80_2731701_13_0820876_node.1.2.3 length=91.3992773675551 geometry=5598c4c7-5058-4951-80f9-dfb89abcfcb1_linegeometry units=m

new line.80_2764993_13_0819213_node__80_2761962_13_0818797_node bus1=80_2764993_13_0819213_node.1.2.3 bus2=80_2761962_13_0818797_node.1.2.3 length=33.19153121581548 geometry=5598c4c7-5058-4951-80f9-dfb89abcfcb1_linegeometry units=m

new line.80_2764993_13_0819213_node__80_27741385300045_13_082036651466526_node bus1=80_2764993_13_0819213_node.1.2.3 bus2=80_27741385300045_13_082036651466526_node.1.2.3 length=100.00001090835099 geometry=5598c4c7-5058-4951-80f9-dfb89abcfcb1_linegeometry units=m

new line.80_2634224_13_0780731_node__80_2633469_13_0780729_node bus1=80_2634224_13_0780731_node.1.2.3 bus2=80_2633469_13_0780729_node.1.2.3 length=8.188061120704267 geometry=5598c4c7-5058-4951-80f9-dfb89abcfcb1_linegeometry units=m

new line.80_27275744177902_13_076857500788144_node__80_2724187_13_0776982_node bus1=80_27275744177902_13_076857500788144_node.1.2.3 bus2=80_2724187_13_0776982_node.1.2.3 length=99.99999545813058 geometry=5598c4c7-5058-4951-80f9-dfb89abcfcb1_linegeometry units=m

new line.80_27275744177902_13_076857500788144_node__80_2728342_13_076667_node bus1=80_27275744177902_13_076857500788144_node.1.2.3 bus2=80_2728342_13_076667_node.1.2.3 length=22.659807888683737 geometry=5598c4c7-5058-4951-80f9-dfb89abcfcb1_linegeometry units=m

new line.80_2783108_13_0853304_node__80_2784418_13_0861687_node bus1=80_2783108_13_0853304_node.1.2.3 bus2=80_2784418_13_0861687_node.1.2.3 length=93.82395225984577 geometry=5598c4c7-5058-4951-80f9-dfb89abcfcb1_linegeometry units=m

new line.80_2783108_13_0853304_node__80_27820292521844_13_084432702725648_node bus1=80_2783108_13_0853304_node.1.2.3 bus2=80_27820292521844_13_084432702725648_node.1.2.3 length=100.00000040658237 geometry=5598c4c7-5058-4951-80f9-dfb89abcfcb1_linegeometry units=m

new line.80_2611743_13_0868053_node__80_2611749_13_0862952_node bus1=80_2611743_13_0868053_node.1.2.3 bus2=80_2611749_13_0862952_node.1.2.3 length=56.43302501094191 geometry=5598c4c7-5058-4951-80f9-dfb89abcfcb1_linegeometry units=m

new line.80_2611743_13_0868053_node__80_26207180477377_13_087012719649278_node bus1=80_2611743_13_0868053_node.1.2.3 bus2=80_26207180477377_13_087012719649278_node.1.2.3 length=100.00004175374352 geometry=5598c4c7-5058-4951-80f9-dfb89abcfcb1_linegeometry units=m

new line.80_27533941441307_13_081299223499235_node__80_27553951153045_13_080416858799389_htnode bus1=80_27533941441307_13_081299223499235_node.1.2.3 bus2=80_27553951153045_13_080416858799389_htnode.1.2.3 length=99.99998145204961 geometry=5598c4c7-5058-4951-80f9-dfb89abcfcb1_linegeometry units=m

new line.80_27533941441307_13_081299223499235_node__80_2752637_13_0816331_node bus1=80_27533941441307_13_081299223499235_node.1.2.3 bus2=80_2752637_13_0816331_node.1.2.3 length=37.83882280463753 geometry=5598c4c7-5058-4951-80f9-dfb89abcfcb1_linegeometry units=m

new line.80_2781193_13_083387_node__80_2781189_13_083576_node bus1=80_2781193_13_083387_node.1.2.3 bus2=80_2781189_13_083576_node.1.2.3 length=20.909341422971448 geometry=5598c4c7-5058-4951-80f9-dfb89abcfcb1_linegeometry units=m

new line.80_2781193_13_083387_node__80_27793535565202_13_082501263516933_node bus1=80_2781193_13_083387_node.1.2.3 bus2=80_27793535565202_13_082501263516933_node.1.2.3 length=99.99999823568938 geometry=5598c4c7-5058-4951-80f9-dfb89abcfcb1_linegeometry units=m

new line.80_2730578_13_0826882_node__80_27355149078845_13_08260774173497_node bus1=80_2730578_13_0826882_node.1.2.3 bus2=80_27355149078845_13_08260774173497_node.1.2.3 length=54.27502698509443 geometry=5598c4c7-5058-4951-80f9-dfb89abcfcb1_linegeometry units=m

new line.80_2731701_13_0820876_node__80_2732799_13_0814946_node bus1=80_2731701_13_0820876_node.1.2.3 bus2=80_2732799_13_0814946_node.1.2.3 length=66.6762082534974 geometry=5598c4c7-5058-4951-80f9-dfb89abcfcb1_linegeometry units=m

new line.80_26591297571943_13_088759864255085_node__80_26590435143886_13_089663728510171_node bus1=80_26591297571943_13_088759864255085_node.1.2.3 bus2=80_26590435143886_13_089663728510171_node.1.2.3 length=100.0000034185368 geometry=5598c4c7-5058-4951-80f9-dfb89abcfcb1_linegeometry units=m

new line.80_2652664049035_13_079477316995948_node__80_2651477_13_0803737_node bus1=80_2652664049035_13_079477316995948_node.1.2.3 bus2=80_2651477_13_0803737_node.1.2.3 length=100.00000036972796 geometry=5598c4c7-5058-4951-80f9-dfb89abcfcb1_linegeometry units=m

new line.80_2652664049035_13_079477316995948_node__80_2653726_13_0786754_node bus1=80_2652664049035_13_079477316995948_node.1.2.3 bus2=80_2653726_13_0786754_node.1.2.3 length=89.46142318726248 geometry=5598c4c7-5058-4951-80f9-dfb89abcfcb1_linegeometry units=m

new line.80_2714247_13_0775466_node__80_2709239_13_0776486_node bus1=80_2714247_13_0775466_node.1.2.3 bus2=80_2709239_13_0776486_node.1.2.3 length=55.47212138229482 geometry=5598c4c7-5058-4951-80f9-dfb89abcfcb1_linegeometry units=m

new line.80_2714247_13_0775466_node__80_2718366_13_0774426_node bus1=80_2714247_13_0775466_node.1.2.3 bus2=80_2718366_13_0774426_node.1.2.3 length=46.12889467543586 geometry=5598c4c7-5058-4951-80f9-dfb89abcfcb1_linegeometry units=m

new line.80_2641271_13_0901735_node__80_26412513371356_13_090173697206145_node bus1=80_2641271_13_0901735_node.1.2.3 bus2=80_26412513371356_13_090173697206145_node.1.2.3 length=0.2143480355135824 geometry=5598c4c7-5058-4951-80f9-dfb89abcfcb1_linegeometry units=m

new line.80_2638588_13_083918_node__80_26383952774454_13_083814274527516_node bus1=80_2638588_13_083918_node.1.2.3 bus2=80_26383952774454_13_083814274527516_node.1.2.3 length=11.664054997223966 geometry=5598c4c7-5058-4951-80f9-dfb89abcfcb1_linegeometry units=m

new line.80_2638588_13_083918_node__80_263209_13_0840241_node bus1=80_2638588_13_083918_node.1.2.3 bus2=80_263209_13_0840241_node.1.2.3 length=71.44051483544064 geometry=5598c4c7-5058-4951-80f9-dfb89abcfcb1_linegeometry units=m

new line.80_2705195_13_078802_node__80_2708274_13_0786209_node bus1=80_2705195_13_078802_node.1.2.3 bus2=80_2708274_13_0786209_node.1.2.3 length=38.94139479246335 geometry=5598c4c7-5058-4951-80f9-dfb89abcfcb1_linegeometry units=m

new line.80_2705195_13_078802_node__80_26964187156807_13_07907927070125_node bus1=80_2705195_13_078802_node.1.2.3 bus2=80_26964187156807_13_07907927070125_node.1.2.3 length=100.0000388914479 geometry=5598c4c7-5058-4951-80f9-dfb89abcfcb1_linegeometry units=m

new line.80_2669242_13_0811162_node__80_266937_13_0807792_node bus1=80_2669242_13_0811162_node.1.2.3 bus2=80_266937_13_0807792_node.1.2.3 length=37.308540156876205 geometry=5598c4c7-5058-4951-80f9-dfb89abcfcb1_linegeometry units=m

new line.80_2669242_13_0811162_node__80_26691254203276_13_081392965302964_node bus1=80_2669242_13_0811162_node.1.2.3 bus2=80_26691254203276_13_081392965302964_node.1.2.3 length=30.644963047839735 geometry=5598c4c7-5058-4951-80f9-dfb89abcfcb1_linegeometry units=m

new line.80_2670385_13_0883335_node__80_2670455_13_0885754_htnode bus1=80_2670385_13_0883335_node.1.2.3 bus2=80_2670455_13_0885754_htnode.1.2.3 length=26.772461590587266 geometry=5598c4c7-5058-4951-80f9-dfb89abcfcb1_linegeometry units=m

new line.80_2636743_13_082925_node__80_26383952774454_13_083814274527516_node bus1=80_2636743_13_082925_node.1.2.3 bus2=80_26383952774454_13_083814274527516_node.1.2.3 length=100.00000028339107 geometry=5598c4c7-5058-4951-80f9-dfb89abcfcb1_linegeometry units=m

new line.80_2636743_13_082925_node__80_26459607384464_13_082901126358985_node bus1=80_2636743_13_082925_node.1.2.3 bus2=80_26459607384464_13_082901126358985_node.1.2.3 length=99.99999524234939 geometry=5598c4c7-5058-4951-80f9-dfb89abcfcb1_linegeometry units=m

new line.80_2785305_13_0867284_node__80_2784418_13_0861687_node bus1=80_2785305_13_0867284_node.1.2.3 bus2=80_2784418_13_0861687_node.1.2.3 length=62.66301235180989 geometry=5598c4c7-5058-4951-80f9-dfb89abcfcb1_linegeometry units=m

new line.80_2785305_13_0867284_node__80_27863661816303_13_087626298386262_node bus1=80_2785305_13_0867284_node.1.2.3 bus2=80_27863661816303_13_087626298386262_node.1.2.3 length=99.9999997386709 geometry=5598c4c7-5058-4951-80f9-dfb89abcfcb1_linegeometry units=m

new line.80_2785305_13_0867284_node__80_278102_13_0868147_node bus1=80_2785305_13_0867284_node.1.2.3 bus2=80_278102_13_0868147_node.1.2.3 length=47.44017394718964 geometry=5598c4c7-5058-4951-80f9-dfb89abcfcb1_linegeometry units=m

new line.80_278102_13_0868147_node__80_27778085793744_13_08685271972987_node bus1=80_278102_13_0868147_node.1.2.3 bus2=80_27778085793744_13_08685271972987_node.1.2.3 length=35.079943988934325 geometry=5598c4c7-5058-4951-80f9-dfb89abcfcb1_linegeometry units=m

new line.80_2625542_13_0856393_node__80_2629079_13_0855773_node bus1=80_2625542_13_0856393_node.1.2.3 bus2=80_2629079_13_0855773_node.1.2.3 length=38.966311576105554 geometry=5598c4c7-5058-4951-80f9-dfb89abcfcb1_linegeometry units=m

new line.80_2625542_13_0856393_node__80_26200454047506_13_0859006801801_node bus1=80_2625542_13_0856393_node.1.2.3 bus2=80_26200454047506_13_0859006801801_node.1.2.3 length=66.25277981147491 geometry=5598c4c7-5058-4951-80f9-dfb89abcfcb1_linegeometry units=m

new line.80_2697735_13_08341_node__80_2697754_13_0838969_node bus1=80_2697735_13_08341_node.1.2.3 bus2=80_2697754_13_0838969_node.1.2.3 length=53.86672512771528 geometry=5598c4c7-5058-4951-80f9-dfb89abcfcb1_linegeometry units=m

new line.80_2697735_13_08341_node__80_2696283_13_0829503_node bus1=80_2697735_13_08341_node.1.2.3 bus2=80_2696283_13_0829503_node.1.2.3 length=53.2391782199997 geometry=5598c4c7-5058-4951-80f9-dfb89abcfcb1_linegeometry units=m

new line.80_2665204_13_0917876_htnode__80_265979_13_0917759_node bus1=80_2665204_13_0917876_htnode.1.2.3 bus2=80_265979_13_0917759_node.1.2.3 length=58.72625527794446 geometry=5598c4c7-5058-4951-80f9-dfb89abcfcb1_linegeometry units=m

new line.80_2708274_13_0786209_node__80_271092_13_0784807_node bus1=80_2708274_13_0786209_node.1.2.3 bus2=80_271092_13_0784807_node.1.2.3 length=32.619569792988635 geometry=5598c4c7-5058-4951-80f9-dfb89abcfcb1_linegeometry units=m

new line.80_2682156_13_0824865_node__80_2679481_13_0825283_node bus1=80_2682156_13_0824865_node.1.2.3 bus2=80_2679481_13_0825283_node.1.2.3 length=29.376321512955382 geometry=5598c4c7-5058-4951-80f9-dfb89abcfcb1_linegeometry units=m

new line.80_2682156_13_0824865_node__80_2684848_13_0824714_node bus1=80_2682156_13_0824865_node.1.2.3 bus2=80_2684848_13_0824714_node.1.2.3 length=29.242177751017895 geometry=5598c4c7-5058-4951-80f9-dfb89abcfcb1_linegeometry units=m

new line.80_26200454047506_13_0859006801801_node__80_2611749_13_0862952_node bus1=80_26200454047506_13_0859006801801_node.1.2.3 bus2=80_2611749_13_0862952_node.1.2.3 length=99.99995754515896 geometry=5598c4c7-5058-4951-80f9-dfb89abcfcb1_linegeometry units=m

new line.80_2789018_13_0894298_node__80_2782533_13_0898529_node bus1=80_2789018_13_0894298_node.1.2.3 bus2=80_2782533_13_0898529_node.1.2.3 length=84.48010137841885 geometry=5598c4c7-5058-4951-80f9-dfb89abcfcb1_linegeometry units=m

new line.80_2789018_13_0894298_node__80_2788984_13_0892892_node bus1=80_2789018_13_0894298_node.1.2.3 bus2=80_2788984_13_0892892_node.1.2.3 length=15.559122986761588 geometry=5598c4c7-5058-4951-80f9-dfb89abcfcb1_linegeometry units=m

new line.80_2674289_13_0825827_node__80_2668734_13_082636_node bus1=80_2674289_13_0825827_node.1.2.3 bus2=80_2668734_13_082636_node.1.2.3 length=60.5311827141888 geometry=5598c4c7-5058-4951-80f9-dfb89abcfcb1_linegeometry units=m

new line.80_2674289_13_0825827_node__80_2679481_13_0825283_node bus1=80_2674289_13_0825827_node.1.2.3 bus2=80_2679481_13_0825283_node.1.2.3 length=56.62733144566791 geometry=5598c4c7-5058-4951-80f9-dfb89abcfcb1_linegeometry units=m

new line.80_2674289_13_0825827_node__80_26745294916927_13_081679103207922_htnode bus1=80_2674289_13_0825827_node.1.2.3 bus2=80_26745294916927_13_081679103207922_htnode.1.2.3 length=100.00000210722585 geometry=5598c4c7-5058-4951-80f9-dfb89abcfcb1_linegeometry units=m

new line.80_263209_13_0840241_node__80_262567_13_084129_node bus1=80_263209_13_0840241_node.1.2.3 bus2=80_262567_13_084129_node.1.2.3 length=70.58427375790474 geometry=5598c4c7-5058-4951-80f9-dfb89abcfcb1_linegeometry units=m

new line.80_2678876_13_0915242_node__80_2679033_13_0908057_node bus1=80_2678876_13_0915242_node.1.2.3 bus2=80_2679033_13_0908057_node.1.2.3 length=79.50679499838729 geometry=5598c4c7-5058-4951-80f9-dfb89abcfcb1_linegeometry units=m

new line.80_2678876_13_0915242_node__80_2688088056548_13_091483793537542_node bus1=80_2678876_13_0915242_node.1.2.3 bus2=80_2688088056548_13_091483793537542_node.1.2.3 length=99.99999494867792 geometry=5598c4c7-5058-4951-80f9-dfb89abcfcb1_linegeometry units=m

new line.80_2768654_13_0869611_node__80_2769387_13_087461_node bus1=80_2768654_13_0869611_node.1.2.3 bus2=80_2769387_13_087461_node.1.2.3 length=55.87291284089069 geometry=5598c4c7-5058-4951-80f9-dfb89abcfcb1_linegeometry units=m

new line.80_2768654_13_0869611_node__80_27778085793744_13_08685271972987_node bus1=80_2768654_13_0869611_node.1.2.3 bus2=80_27778085793744_13_08685271972987_node.1.2.3 length=99.99999244807528 geometry=5598c4c7-5058-4951-80f9-dfb89abcfcb1_linegeometry units=m

new line.80_2641641_13_0766556_node__80_2641659991362_13_076569791997125_htnode bus1=80_2641641_13_0766556_node.1.2.3 bus2=80_2641659991362_13_076569791997125_htnode.1.2.3 length=9.495271184387608 geometry=5598c4c7-5058-4951-80f9-dfb89abcfcb1_linegeometry units=m

new line.80_2641641_13_0766556_node__80_2642375_13_0766602_node bus1=80_2641641_13_0766556_node.1.2.3 bus2=80_2642375_13_0766602_node.1.2.3 length=7.9765805242453265 geometry=5598c4c7-5058-4951-80f9-dfb89abcfcb1_linegeometry units=m

new line.80_262567_13_084129_node__80_2624378_13_0835482_node bus1=80_262567_13_084129_node.1.2.3 bus2=80_2624378_13_0835482_node.1.2.3 length=65.7645516676469 geometry=5598c4c7-5058-4951-80f9-dfb89abcfcb1_linegeometry units=m

new line.80_26292573508637_13_09131401238693_htnode__80_2631168_13_0921983_node bus1=80_26292573508637_13_09131401238693_htnode.1.2.3 bus2=80_2631168_13_0921983_node.1.2.3 length=99.9999979421909 geometry=5598c4c7-5058-4951-80f9-dfb89abcfcb1_linegeometry units=m

new line.80_27863661816303_13_087626298386262_node__80_2786636_13_0878546_htnode bus1=80_27863661816303_13_087626298386262_node.1.2.3 bus2=80_2786636_13_0878546_htnode.1.2.3 length=25.426219668010603 geometry=5598c4c7-5058-4951-80f9-dfb89abcfcb1_linegeometry units=m

new line.80_26296930954756_13_087220139298559_node__80_26207180477377_13_087012719649278_node bus1=80_26296930954756_13_087220139298559_node.1.2.3 bus2=80_26207180477377_13_087012719649278_node.1.2.3 length=99.99996262055411 geometry=5598c4c7-5058-4951-80f9-dfb89abcfcb1_linegeometry units=m

new line.80_26296930954756_13_087220139298559_node__80_2630189_13_0872316_node bus1=80_26296930954756_13_087220139298559_node.1.2.3 bus2=80_2630189_13_0872316_node.1.2.3 length=5.5253648393644745 geometry=5598c4c7-5058-4951-80f9-dfb89abcfcb1_linegeometry units=m

new line.80_2788316_13_0890121_node__80_2787863_13_0887496_node bus1=80_2788316_13_0890121_node.1.2.3 bus2=80_2787863_13_0887496_node.1.2.3 length=29.453285640070373 geometry=5598c4c7-5058-4951-80f9-dfb89abcfcb1_linegeometry units=m

new line.80_2788316_13_0890121_node__80_278861_13_089168_node bus1=80_2788316_13_0890121_node.1.2.3 bus2=80_278861_13_089168_node.1.2.3 length=17.5396270643978 geometry=5598c4c7-5058-4951-80f9-dfb89abcfcb1_linegeometry units=m

new line.80_26608921803555_13_084404215698282_node__80_2661477_13_0853063_node bus1=80_26608921803555_13_084404215698282_node.1.2.3 bus2=80_2661477_13_0853063_node.1.2.3 length=100.00000025834618 geometry=5598c4c7-5058-4951-80f9-dfb89abcfcb1_linegeometry units=m

new line.80_26608921803555_13_084404215698282_node__80_2660837_13_0843191_node bus1=80_26608921803555_13_084404215698282_node.1.2.3 bus2=80_2660837_13_0843191_node.1.2.3 length=9.435448082307891 geometry=5598c4c7-5058-4951-80f9-dfb89abcfcb1_linegeometry units=m

new line.80_2732799_13_0814946_node__80_2733598_13_0815109_node bus1=80_2732799_13_0814946_node.1.2.3 bus2=80_2733598_13_0815109_node.1.2.3 length=8.850746614904827 geometry=5598c4c7-5058-4951-80f9-dfb89abcfcb1_linegeometry units=m

new line.80_2651321_13_0806787_node__80_2651669_13_0807843_node bus1=80_2651321_13_0806787_node.1.2.3 bus2=80_2651669_13_0807843_node.1.2.3 length=12.277124164106523 geometry=5598c4c7-5058-4951-80f9-dfb89abcfcb1_linegeometry units=m

new line.80_2651321_13_0806787_node__80_2651477_13_0803737_node bus1=80_2651321_13_0806787_node.1.2.3 bus2=80_2651477_13_0803737_node.1.2.3 length=33.78489400030632 geometry=5598c4c7-5058-4951-80f9-dfb89abcfcb1_linegeometry units=m

new line.80_27429163615777_13_081624320741927_node__80_2752067_13_0817357_node bus1=80_27429163615777_13_081624320741927_node.1.2.3 bus2=80_2752067_13_0817357_node.1.2.3 length=99.99997749889913 geometry=5598c4c7-5058-4951-80f9-dfb89abcfcb1_linegeometry units=m

new line.80_2782533_13_0898529_node__80_2778554_13_0900371_node bus1=80_2782533_13_0898529_node.1.2.3 bus2=80_2778554_13_0900371_node.1.2.3 length=47.72042172812349 geometry=5598c4c7-5058-4951-80f9-dfb89abcfcb1_linegeometry units=m

new line.80_2659042_13_0896796_node__80_2658971_13_0903132_node bus1=80_2659042_13_0896796_node.1.2.3 bus2=80_2658971_13_0903132_node.1.2.3 length=70.10019104968485 geometry=5598c4c7-5058-4951-80f9-dfb89abcfcb1_linegeometry units=m

new line.80_2659042_13_0896796_node__80_26590435143886_13_089663728510171_node bus1=80_2659042_13_0896796_node.1.2.3 bus2=80_26590435143886_13_089663728510171_node.1.2.3 length=1.7559595748438483 geometry=5598c4c7-5058-4951-80f9-dfb89abcfcb1_linegeometry units=m

new line.80_27793535565202_13_082501263516933_node__80_2778503_13_0820917_node bus1=80_27793535565202_13_082501263516933_node.1.2.3 bus2=80_2778503_13_0820917_node.1.2.3 length=46.23988515688805 geometry=5598c4c7-5058-4951-80f9-dfb89abcfcb1_linegeometry units=m

new line.80_2622342_13_0825462_htnode__80_2623052_13_0829588_node bus1=80_2622342_13_0825462_htnode.1.2.3 bus2=80_2623052_13_0829588_node.1.2.3 length=46.291298916794474 geometry=5598c4c7-5058-4951-80f9-dfb89abcfcb1_linegeometry units=m

new line.80_2728342_13_076667_node__80_2728657586103_13_076584612242012_node bus1=80_2728342_13_076667_node.1.2.3 bus2=80_2728657586103_13_076584612242012_node.1.2.3 length=9.736061345649341 geometry=5598c4c7-5058-4951-80f9-dfb89abcfcb1_linegeometry units=m

new line.80_2706011_13_0841988_node__80_2704892_13_0842498_node bus1=80_2706011_13_0841988_node.1.2.3 bus2=80_2704892_13_0842498_node.1.2.3 length=13.382852490592553 geometry=5598c4c7-5058-4951-80f9-dfb89abcfcb1_linegeometry units=m

new line.80_2706011_13_0841988_node__80_2711155384945_13_083784421424092_node bus1=80_2706011_13_0841988_node.1.2.3 bus2=80_2711155384945_13_083784421424092_node.1.2.3 length=72.20881348053733 geometry=5598c4c7-5058-4951-80f9-dfb89abcfcb1_linegeometry units=m

new line.80_2670877772183_13_075426507448451_node__80_2670819_13_0754276_node bus1=80_2670877772183_13_075426507448451_node.1.2.3 bus2=80_2670819_13_0754276_node.1.2.3 length=0.6487546731178292 geometry=5598c4c7-5058-4951-80f9-dfb89abcfcb1_linegeometry units=m

new line.80_2653059_13_075705_node__80_265274_13_076229_node bus1=80_2653059_13_075705_node.1.2.3 bus2=80_265274_13_076229_node.1.2.3 length=58.07385453403316 geometry=5598c4c7-5058-4951-80f9-dfb89abcfcb1_linegeometry units=m

new line.80_2653059_13_075705_node__80_2654658_13_0763314_node bus1=80_2653059_13_075705_node.1.2.3 bus2=80_2654658_13_0763314_node.1.2.3 length=71.43615072837305 geometry=5598c4c7-5058-4951-80f9-dfb89abcfcb1_linegeometry units=m

new line.80_279261_13_0913881_node__80_27834864364979_13_0915193376659_ltnode bus1=80_279261_13_0913881_node.1.2.3 bus2=80_27834864364979_13_0915193376659_ltnode.1.2.3 length=100.00000818012717 geometry=5598c4c7-5058-4951-80f9-dfb89abcfcb1_linegeometry units=m

new line.80_279261_13_0913881_node__80_27908697001804_13_0905004398867_node bus1=80_279261_13_0913881_node.1.2.3 bus2=80_27908697001804_13_0905004398867_node.1.2.3 length=99.99999963458903 geometry=5598c4c7-5058-4951-80f9-dfb89abcfcb1_linegeometry units=m

new line.80_2731899_13_0757384_htnode__80_2728657586103_13_076584612242012_node bus1=80_2731899_13_0757384_htnode.1.2.3 bus2=80_2728657586103_13_076584612242012_node.1.2.3 length=100.00000177148031 geometry=5598c4c7-5058-4951-80f9-dfb89abcfcb1_linegeometry units=m

new line.80_2653726_13_0786754_node__80_26519502856654_13_078639588552583_node bus1=80_2653726_13_0786754_node.1.2.3 bus2=80_26519502856654_13_078639588552583_node.1.2.3 length=19.66101979885257 geometry=5598c4c7-5058-4951-80f9-dfb89abcfcb1_linegeometry units=m

new line.80_2769387_13_087461_node__80_2778518253388_13_087335111072376_node bus1=80_2769387_13_087461_node.1.2.3 bus2=80_2778518253388_13_087335111072376_node.1.2.3 length=99.99999165796754 geometry=5598c4c7-5058-4951-80f9-dfb89abcfcb1_linegeometry units=m

new line.80_2618445_13_0896724_node__80_26270878198511_13_089585971801489_node bus1=80_2618445_13_0896724_node.1.2.3 bus2=80_26270878198511_13_089585971801489_node.1.2.3 length=94.21411483877742 geometry=5598c4c7-5058-4951-80f9-dfb89abcfcb1_linegeometry units=m

new line.80_2618445_13_0896724_node__80_2620953_13_088932_htnode bus1=80_2618445_13_0896724_node.1.2.3 bus2=80_2620953_13_088932_htnode.1.2.3 length=86.30884334812004 geometry=5598c4c7-5058-4951-80f9-dfb89abcfcb1_linegeometry units=m

new line.80_2772624_13_0921354_node__80_2768935_13_0921676_node bus1=80_2772624_13_0921354_node.1.2.3 bus2=80_2768935_13_0921676_node.1.2.3 length=40.16350271661352 geometry=5598c4c7-5058-4951-80f9-dfb89abcfcb1_linegeometry units=m

new line.80_2772624_13_0921354_node__80_277769_13_0921127_node bus1=80_2772624_13_0921354_node.1.2.3 bus2=80_277769_13_0921127_node.1.2.3 length=54.99540460219059 geometry=5598c4c7-5058-4951-80f9-dfb89abcfcb1_linegeometry units=m

new line.80_2787863_13_0887496_node__80_2787168_13_0882864_node bus1=80_2787863_13_0887496_node.1.2.3 bus2=80_2787168_13_0882864_node.1.2.3 length=51.79569584612117 geometry=5598c4c7-5058-4951-80f9-dfb89abcfcb1_linegeometry units=m

new line.80_265274_13_076229_node__80_26515135567274_13_076163341394066_node bus1=80_265274_13_076229_node.1.2.3 bus2=80_26515135567274_13_076163341394066_node.1.2.3 length=15.15519129906215 geometry=5598c4c7-5058-4951-80f9-dfb89abcfcb1_linegeometry units=m

new line.80_2645435_13_0894025_node__80_2649928_13_0897833_node bus1=80_2645435_13_0894025_node.1.2.3 bus2=80_2649928_13_0897833_node.1.2.3 length=64.41189819695114 geometry=5598c4c7-5058-4951-80f9-dfb89abcfcb1_linegeometry units=m

new line.80_2645435_13_0894025_node__80_26362614099256_13_089494235900744_node bus1=80_2645435_13_0894025_node.1.2.3 bus2=80_26362614099256_13_089494235900744_node.1.2.3 length=100.00003554486372 geometry=5598c4c7-5058-4951-80f9-dfb89abcfcb1_linegeometry units=m

new line.80_2782422_13_0879302_node__80_278158_13_0872929_node bus1=80_2782422_13_0879302_node.1.2.3 bus2=80_278158_13_0872929_node.1.2.3 length=71.09412112546823 geometry=5598c4c7-5058-4951-80f9-dfb89abcfcb1_linegeometry units=m

new line.80_2782422_13_0879302_node__80_2787168_13_0882864_node bus1=80_2782422_13_0879302_node.1.2.3 bus2=80_2787168_13_0882864_node.1.2.3 length=64.82222349632663 geometry=5598c4c7-5058-4951-80f9-dfb89abcfcb1_linegeometry units=m

new line.80_26362614099256_13_089494235900744_node__80_26270878198511_13_089585971801489_node bus1=80_26362614099256_13_089494235900744_node.1.2.3 bus2=80_26270878198511_13_089585971801489_node.1.2.3 length=99.99999894065196 geometry=5598c4c7-5058-4951-80f9-dfb89abcfcb1_linegeometry units=m

new line.80_2632675_13_0908812_node__80_2632078_13_0902657_node bus1=80_2632675_13_0908812_node.1.2.3 bus2=80_2632078_13_0902657_node.1.2.3 length=68.40062281077729 geometry=5598c4c7-5058-4951-80f9-dfb89abcfcb1_linegeometry units=m

new line.80_2632675_13_0908812_node__80_26331595643546_13_091241739979008_node bus1=80_2632675_13_0908812_node.1.2.3 bus2=80_26331595643546_13_091241739979008_node.1.2.3 length=40.23165164586801 geometry=5598c4c7-5058-4951-80f9-dfb89abcfcb1_linegeometry units=m

new line.80_2693448_13_076095_node__80_2698756_13_0759678_node bus1=80_2693448_13_076095_node.1.2.3 bus2=80_2698756_13_0759678_node.1.2.3 length=59.26118670875515 geometry=5598c4c7-5058-4951-80f9-dfb89abcfcb1_linegeometry units=m

new line.80_2693448_13_076095_node__80_2694706_13_0765348_node bus1=80_2693448_13_076095_node.1.2.3 bus2=80_2694706_13_0765348_node.1.2.3 length=50.5321856818703 geometry=5598c4c7-5058-4951-80f9-dfb89abcfcb1_linegeometry units=m

new line.80_26853419707409_13_083374006246611_node__80_2684848_13_0824714_node bus1=80_26853419707409_13_083374006246611_node.1.2.3 bus2=80_2684848_13_0824714_node.1.2.3 length=99.99999882633125 geometry=5598c4c7-5058-4951-80f9-dfb89abcfcb1_linegeometry units=m

new line.80_26853419707409_13_083374006246611_node__80_2685538_13_0837322_node bus1=80_26853419707409_13_083374006246611_node.1.2.3 bus2=80_2685538_13_0837322_node.1.2.3 length=39.68438788530755 geometry=5598c4c7-5058-4951-80f9-dfb89abcfcb1_linegeometry units=m

new line.80_2670779_13_0782594_node__80_2670286_13_0781722_node bus1=80_2670779_13_0782594_node.1.2.3 bus2=80_2670286_13_0781722_node.1.2.3 length=11.02958044915103 geometry=5598c4c7-5058-4951-80f9-dfb89abcfcb1_linegeometry units=m

new line.80_2670779_13_0782594_node__80_267467_13_0787979_node bus1=80_2670779_13_0782594_node.1.2.3 bus2=80_267467_13_0787979_node.1.2.3 length=73.00579612688087 geometry=5598c4c7-5058-4951-80f9-dfb89abcfcb1_linegeometry units=m

new line.80_2633917_13_0884061_node__80_263309_13_0882537_node bus1=80_2633917_13_0884061_node.1.2.3 bus2=80_263309_13_0882537_node.1.2.3 length=19.09713253874103 geometry=5598c4c7-5058-4951-80f9-dfb89abcfcb1_linegeometry units=m

new line.80_2633917_13_0884061_node__80_26416828148467_13_088158686448155_node bus1=80_2633917_13_0884061_node.1.2.3 bus2=80_26416828148467_13_088158686448155_node.1.2.3 length=88.55379406321232 geometry=5598c4c7-5058-4951-80f9-dfb89abcfcb1_linegeometry units=m

new line.80_278158_13_0872929_node__80_2778518253388_13_087335111072376_node bus1=80_278158_13_0872929_node.1.2.3 bus2=80_2778518253388_13_087335111072376_node.1.2.3 length=33.53041738751438 geometry=5598c4c7-5058-4951-80f9-dfb89abcfcb1_linegeometry units=m

new line.80_2642375_13_0766602_node__80_2642272_13_076704_node bus1=80_2642375_13_0766602_node.1.2.3 bus2=80_2642272_13_076704_node.1.2.3 length=4.972731983064166 geometry=5598c4c7-5058-4951-80f9-dfb89abcfcb1_linegeometry units=m

new line.80_2642272_13_076704_node__80_26382217027212_13_077516032186123_node bus1=80_2642272_13_076704_node.1.2.3 bus2=80_26382217027212_13_077516032186123_node.1.2.3 length=100.00002247289675 geometry=5598c4c7-5058-4951-80f9-dfb89abcfcb1_linegeometry units=m

new line.80_2765243_13_0909096_node__80_2761788_13_0910608_node bus1=80_2765243_13_0909096_node.1.2.3 bus2=80_2761788_13_0910608_node.1.2.3 length=41.03220906604014 geometry=5598c4c7-5058-4951-80f9-dfb89abcfcb1_linegeometry units=m

new line.80_2765243_13_0909096_node__80_27677923937635_13_09177827208954_node bus1=80_2765243_13_0909096_node.1.2.3 bus2=80_27677923937635_13_09177827208954_node.1.2.3 length=100.00000460967195 geometry=5598c4c7-5058-4951-80f9-dfb89abcfcb1_linegeometry units=m

new line.80_2683332_13_0767684_htnode__80_26856812163521_13_076720151631806_node bus1=80_2683332_13_0767684_htnode.1.2.3 bus2=80_26856812163521_13_076720151631806_node.1.2.3 length=26.030712805692534 geometry=5598c4c7-5058-4951-80f9-dfb89abcfcb1_linegeometry units=m

new line.80_266035_13_0828657_node__80_2655083_13_0828775_node bus1=80_266035_13_0828657_node.1.2.3 bus2=80_2655083_13_0828775_node.1.2.3 length=57.13481851892967 geometry=5598c4c7-5058-4951-80f9-dfb89abcfcb1_linegeometry units=m

new line.80_277641_13_0862999_node__80_2780241_13_0862232_node bus1=80_277641_13_0862999_node.1.2.3 bus2=80_2780241_13_0862232_node.1.2.3 length=42.403790598307374 geometry=5598c4c7-5058-4951-80f9-dfb89abcfcb1_linegeometry units=m

new line.80_277641_13_0862999_node__80_27753348962094_13_085402160736605_node bus1=80_277641_13_0862999_node.1.2.3 bus2=80_27753348962094_13_085402160736605_node.1.2.3 length=100.00000060797132 geometry=5598c4c7-5058-4951-80f9-dfb89abcfcb1_linegeometry units=m

new line.80_2623397_13_0831152_node__80_2623052_13_0829588_node bus1=80_2623397_13_0831152_node.1.2.3 bus2=80_2623052_13_0829588_node.1.2.3 length=17.70261897491067 geometry=5598c4c7-5058-4951-80f9-dfb89abcfcb1_linegeometry units=m

new line.80_2623397_13_0831152_node__80_2624378_13_0835482_node bus1=80_2623397_13_0831152_node.1.2.3 bus2=80_2624378_13_0835482_node.1.2.3 length=49.07046814053015 geometry=5598c4c7-5058-4951-80f9-dfb89abcfcb1_linegeometry units=m

new line.80_26608898365862_13_080781643298875_node__80_2651669_13_0807843_node bus1=80_26608898365862_13_080781643298875_node.1.2.3 bus2=80_2651669_13_0807843_node.1.2.3 length=99.99999950783925 geometry=5598c4c7-5058-4951-80f9-dfb89abcfcb1_linegeometry units=m

new line.80_26608898365862_13_080781643298875_node__80_266937_13_0807792_node bus1=80_26608898365862_13_080781643298875_node.1.2.3 bus2=80_266937_13_0807792_node.1.2.3 length=91.96739775072028 geometry=5598c4c7-5058-4951-80f9-dfb89abcfcb1_linegeometry units=m

new line.80_2630189_13_0872316_node__80_26326606475199_13_088102427621518_node bus1=80_2630189_13_0872316_node.1.2.3 bus2=80_26326606475199_13_088102427621518_node.1.2.3 length=100.00000164751643 geometry=5598c4c7-5058-4951-80f9-dfb89abcfcb1_linegeometry units=m

new line.80_27908697001804_13_0905004398867_node__80_2790662_13_0903945_node bus1=80_27908697001804_13_0905004398867_node.1.2.3 bus2=80_2790662_13_0903945_node.1.2.3 length=11.934735869781818 geometry=5598c4c7-5058-4951-80f9-dfb89abcfcb1_linegeometry units=m

new line.80_2682226_13_0849183_node__80_267680911391_13_085030126436525_node bus1=80_2682226_13_0849183_node.1.2.3 bus2=80_267680911391_13_085030126436525_node.1.2.3 length=60.03346615852692 geometry=5598c4c7-5058-4951-80f9-dfb89abcfcb1_linegeometry units=m

new line.80_2682226_13_0849183_node__80_2687073_13_0848825_node bus1=80_2682226_13_0849183_node.1.2.3 bus2=80_2687073_13_0848825_node.1.2.3 length=52.71362850235885 geometry=5598c4c7-5058-4951-80f9-dfb89abcfcb1_linegeometry units=m

new line.80_2768935_13_0921676_node__80_27677923937635_13_09177827208954_node bus1=80_2768935_13_0921676_node.1.2.3 bus2=80_27677923937635_13_09177827208954_node.1.2.3 length=44.8187382907149 geometry=5598c4c7-5058-4951-80f9-dfb89abcfcb1_linegeometry units=m

new line.80_271092_13_0784807_node__80_2709239_13_0776486_node bus1=80_271092_13_0784807_node.1.2.3 bus2=80_2709239_13_0776486_node.1.2.3 length=93.84398878858903 geometry=5598c4c7-5058-4951-80f9-dfb89abcfcb1_linegeometry units=m

new line.80_2762396_13_0823062_node__80_27537964939911_13_082380324502173_node bus1=80_2762396_13_0823062_node.1.2.3 bus2=80_27537964939911_13_082380324502173_node.1.2.3 length=93.62052142543159 geometry=5598c4c7-5058-4951-80f9-dfb89abcfcb1_linegeometry units=m

new line.80_2762396_13_0823062_node__80_2761962_13_0818797_node bus1=80_2762396_13_0823062_node.1.2.3 bus2=80_2761962_13_0818797_node.1.2.3 length=47.41836888181068 geometry=5598c4c7-5058-4951-80f9-dfb89abcfcb1_linegeometry units=m

new line.80_2667786_13_0852164_node__80_2661477_13_0853063_node bus1=80_2667786_13_0852164_node.1.2.3 bus2=80_2661477_13_0853063_node.1.2.3 length=69.13869067338649 geometry=5598c4c7-5058-4951-80f9-dfb89abcfcb1_linegeometry units=m

new line.80_2667786_13_0852164_node__80_267680911391_13_085030126436525_node bus1=80_2667786_13_0852164_node.1.2.3 bus2=80_267680911391_13_085030126436525_node.1.2.3 length=99.99997843720327 geometry=5598c4c7-5058-4951-80f9-dfb89abcfcb1_linegeometry units=m

new line.80_2634364_13_0921379_node__80_26331595643546_13_091241739979008_node bus1=80_2634364_13_0921379_node.1.2.3 bus2=80_26331595643546_13_091241739979008_node.1.2.3 length=100.00000013030305 geometry=5598c4c7-5058-4951-80f9-dfb89abcfcb1_linegeometry units=m

new line.80_2634364_13_0921379_node__80_2631168_13_0921983_node bus1=80_2634364_13_0921379_node.1.2.3 bus2=80_2631168_13_0921983_node.1.2.3 length=35.29715874281595 geometry=5598c4c7-5058-4951-80f9-dfb89abcfcb1_linegeometry units=m

new line.80_269594_13_092254_node__80_26955053495371_13_091351101093066_htnode bus1=80_269594_13_092254_node.1.2.3 bus2=80_26955053495371_13_091351101093066_htnode.1.2.3 length=100.00000185212984 geometry=5598c4c7-5058-4951-80f9-dfb89abcfcb1_linegeometry units=m

new line.80_269594_13_092254_node__80_2693809_13_0914587_node bus1=80_269594_13_092254_node.1.2.3 bus2=80_2693809_13_0914587_node.1.2.3 length=90.96934109371168 geometry=5598c4c7-5058-4951-80f9-dfb89abcfcb1_linegeometry units=m

new line.80_2693809_13_0914587_node__80_2688088056548_13_091483793537542_node bus1=80_2693809_13_0914587_node.1.2.3 bus2=80_2688088056548_13_091483793537542_node.1.2.3 length=62.10278765975326 geometry=5598c4c7-5058-4951-80f9-dfb89abcfcb1_linegeometry units=m

new line.80_27741385300045_13_082036651466526_node__80_2778503_13_0820917_node bus1=80_27741385300045_13_082036651466526_node.1.2.3 bus2=80_2778503_13_0820917_node.1.2.3 length=47.722428285752635 geometry=5598c4c7-5058-4951-80f9-dfb89abcfcb1_linegeometry units=m

new line.80_2694706_13_0765348_node__80_26856812163521_13_076720151631806_node bus1=80_2694706_13_0765348_node.1.2.3 bus2=80_26856812163521_13_076720151631806_node.1.2.3 length=100.00000929995984 geometry=5598c4c7-5058-4951-80f9-dfb89abcfcb1_linegeometry units=m

new line.80_26429186428327_13_078457444276292_node__80_2633887_13_0782753_node bus1=80_26429186428327_13_078457444276292_node.1.2.3 bus2=80_2633887_13_0782753_node.1.2.3 length=100.00004208905553 geometry=5598c4c7-5058-4951-80f9-dfb89abcfcb1_linegeometry units=m

new line.80_26429186428327_13_078457444276292_node__80_26519502856654_13_078639588552583_node bus1=80_26429186428327_13_078457444276292_node.1.2.3 bus2=80_26519502856654_13_078639588552583_node.1.2.3 length=99.99997174266286 geometry=5598c4c7-5058-4951-80f9-dfb89abcfcb1_linegeometry units=m

new line.80_2662528_13_0903822_node__80_2658971_13_0903132_node bus1=80_2662528_13_0903822_node.1.2.3 bus2=80_2658971_13_0903132_node.1.2.3 length=39.32208430885635 geometry=5598c4c7-5058-4951-80f9-dfb89abcfcb1_linegeometry units=m

new line.80_2698756_13_0759678_node__80_2703688_13_0758365_node bus1=80_2698756_13_0759678_node.1.2.3 bus2=80_2703688_13_0758365_node.1.2.3 length=55.42568989195256 geometry=5598c4c7-5058-4951-80f9-dfb89abcfcb1_linegeometry units=m

new line.80_2681286063146_13_075221344522124_node__80_269017_13_0749793_node bus1=80_2681286063146_13_075221344522124_node.1.2.3 bus2=80_269017_13_0749793_node.1.2.3 length=100.00000686145624 geometry=5598c4c7-5058-4951-80f9-dfb89abcfcb1_linegeometry units=m

new line.80_27752675131744_13_091288012235225_node__80_2772716_13_0904194_node bus1=80_27752675131744_13_091288012235225_node.1.2.3 bus2=80_2772716_13_0904194_node.1.2.3 length=100.00000978677991 geometry=5598c4c7-5058-4951-80f9-dfb89abcfcb1_linegeometry units=m

new line.80_27752675131744_13_091288012235225_node__80_277769_13_0921127_node bus1=80_27752675131744_13_091288012235225_node.1.2.3 bus2=80_277769_13_0921127_node.1.2.3 length=94.94313415375662 geometry=5598c4c7-5058-4951-80f9-dfb89abcfcb1_linegeometry units=m

new line.80_26834085194626_13_079086405222284_node__80_267467_13_0787979_node bus1=80_26834085194626_13_079086405222284_node.1.2.3 bus2=80_267467_13_0787979_node.1.2.3 length=100.00003726199144 geometry=5598c4c7-5058-4951-80f9-dfb89abcfcb1_linegeometry units=m

new line.80_26834085194626_13_079086405222284_node__80_268966_13_0792928_node bus1=80_26834085194626_13_079086405222284_node.1.2.3 bus2=80_268966_13_0792928_node.1.2.3 length=71.5393186220621 geometry=5598c4c7-5058-4951-80f9-dfb89abcfcb1_linegeometry units=m

new line.80_2694813_13_084703_node__80_2687073_13_0848825_node bus1=80_2694813_13_084703_node.1.2.3 bus2=80_2687073_13_0848825_node.1.2.3 length=86.25567401752414 geometry=5598c4c7-5058-4951-80f9-dfb89abcfcb1_linegeometry units=m

new line.80_2694813_13_084703_node__80_2698485_13_0845423_node bus1=80_2694813_13_084703_node.1.2.3 bus2=80_2698485_13_0845423_node.1.2.3 length=43.6104277464495 geometry=5598c4c7-5058-4951-80f9-dfb89abcfcb1_linegeometry units=m

new line.80_2694813_13_084703_node__80_2695028_13_0847626_node bus1=80_2694813_13_084703_node.1.2.3 bus2=80_2695028_13_0847626_node.1.2.3 length=6.993734080787981 geometry=5598c4c7-5058-4951-80f9-dfb89abcfcb1_linegeometry units=m

new line.80_2649928_13_0897833_node__80_2653456_13_0901478_node bus1=80_2649928_13_0897833_node.1.2.3 bus2=80_2653456_13_0901478_node.1.2.3 length=55.586951416453466 geometry=5598c4c7-5058-4951-80f9-dfb89abcfcb1_linegeometry units=m

new line.80_2780241_13_0862232_node__80_2784418_13_0861687_node bus1=80_2780241_13_0862232_node.1.2.3 bus2=80_2784418_13_0861687_node.1.2.3 length=45.69790047175467 geometry=5598c4c7-5058-4951-80f9-dfb89abcfcb1_linegeometry units=m

new line.80_2702071_13_075238_node__80_2703688_13_0758365_node bus1=80_2702071_13_075238_node.1.2.3 bus2=80_2703688_13_0758365_node.1.2.3 length=68.49569619629014 geometry=5598c4c7-5058-4951-80f9-dfb89abcfcb1_linegeometry units=m

new line.80_2761788_13_0910608_node__80_2759719_13_0911402_htnode bus1=80_2761788_13_0910608_node.1.2.3 bus2=80_2759719_13_0911402_htnode.1.2.3 length=24.09548456155118 geometry=5598c4c7-5058-4951-80f9-dfb89abcfcb1_linegeometry units=m

new line.80_2633887_13_0782753_node__80_2632543_13_0782011_node bus1=80_2633887_13_0782753_node.1.2.3 bus2=80_2632543_13_0782011_node.1.2.3 length=16.72835909700582 geometry=5598c4c7-5058-4951-80f9-dfb89abcfcb1_linegeometry units=m

new line.80_27820292521844_13_084432702725648_node__80_2781566_13_0840472_node bus1=80_27820292521844_13_084432702725648_node.1.2.3 bus2=80_2781566_13_0840472_node.1.2.3 length=42.94351035824961 geometry=5598c4c7-5058-4951-80f9-dfb89abcfcb1_linegeometry units=m

new line.80_2709239_13_0776486_node__80_27067479445111_13_076778306146611_htnode bus1=80_2709239_13_0776486_node.1.2.3 bus2=80_27067479445111_13_076778306146611_htnode.1.2.3 length=99.99999800734417 geometry=5598c4c7-5058-4951-80f9-dfb89abcfcb1_linegeometry units=m

new line.80_2670819_13_0754276_node__80_2672158_13_0760151_node bus1=80_2670819_13_0754276_node.1.2.3 bus2=80_2672158_13_0760151_node.1.2.3 length=66.5982901066869 geometry=5598c4c7-5058-4951-80f9-dfb89abcfcb1_linegeometry units=m

new line.80_2756845_13_0875354_node__80_275732_13_087058_node bus1=80_2756845_13_0875354_node.1.2.3 bus2=80_275732_13_087058_node.1.2.3 length=53.06596084406248 geometry=5598c4c7-5058-4951-80f9-dfb89abcfcb1_linegeometry units=m

new line.80_2756845_13_0875354_node__80_2756048_13_0880409_node bus1=80_2756845_13_0875354_node.1.2.3 bus2=80_2756048_13_0880409_node.1.2.3 length=56.58805897145989 geometry=5598c4c7-5058-4951-80f9-dfb89abcfcb1_linegeometry units=m

new line.80_2698485_13_0845423_node__80_2704892_13_0842498_node bus1=80_2698485_13_0845423_node.1.2.3 bus2=80_2704892_13_0842498_node.1.2.3 length=76.64841957013712 geometry=5598c4c7-5058-4951-80f9-dfb89abcfcb1_linegeometry units=m

new line.80_2698485_13_0845423_node__80_2697754_13_0838969_node bus1=80_2698485_13_0845423_node.1.2.3 bus2=80_2697754_13_0838969_node.1.2.3 length=71.84012152130785 geometry=5598c4c7-5058-4951-80f9-dfb89abcfcb1_linegeometry units=m

new line.80_2687073_13_0848825_node__80_26858769884282_13_083986231523742_node bus1=80_2687073_13_0848825_node.1.2.3 bus2=80_26858769884282_13_083986231523742_node.1.2.3 length=100.00000010424804 geometry=5598c4c7-5058-4951-80f9-dfb89abcfcb1_linegeometry units=m

new line.80_26858769884282_13_083986231523742_node__80_2685538_13_0837322_node bus1=80_26858769884282_13_083986231523742_node.1.2.3 bus2=80_2685538_13_0837322_node.1.2.3 length=28.343239725283617 geometry=5598c4c7-5058-4951-80f9-dfb89abcfcb1_linegeometry units=m

new line.80_2752017_13_0816309_node__80_2752067_13_0817357_node bus1=80_2752017_13_0816309_node.1.2.3 bus2=80_2752067_13_0817357_node.1.2.3 length=11.606821141469165 geometry=5598c4c7-5058-4951-80f9-dfb89abcfcb1_linegeometry units=m

new line.80_2752017_13_0816309_node__80_2752637_13_0816331_node bus1=80_2752017_13_0816309_node.1.2.3 bus2=80_2752637_13_0816331_node.1.2.3 length=6.728253374034149 geometry=5598c4c7-5058-4951-80f9-dfb89abcfcb1_linegeometry units=m

new line.80_26459607384464_13_082901126358985_node__80_2655083_13_0828775_node bus1=80_26459607384464_13_082901126358985_node.1.2.3 bus2=80_2655083_13_0828775_node.1.2.3 length=98.96420955242138 geometry=5598c4c7-5058-4951-80f9-dfb89abcfcb1_linegeometry units=m

new line.80_2781189_13_083576_node__80_2781566_13_0840472_node bus1=80_2781189_13_083576_node.1.2.3 bus2=80_2781566_13_0840472_node.1.2.3 length=52.28950603310954 geometry=5598c4c7-5058-4951-80f9-dfb89abcfcb1_linegeometry units=m

new line.80_2653456_13_0901478_node__80_2658971_13_0903132_node bus1=80_2653456_13_0901478_node.1.2.3 bus2=80_2658971_13_0903132_node.1.2.3 length=62.54428337693638 geometry=5598c4c7-5058-4951-80f9-dfb89abcfcb1_linegeometry units=m

new line.80_2663738_13_0762153_node__80_2672158_13_0760151_node bus1=80_2663738_13_0762153_node.1.2.3 bus2=80_2672158_13_0760151_node.1.2.3 length=93.96385773766374 geometry=5598c4c7-5058-4951-80f9-dfb89abcfcb1_linegeometry units=m

new line.80_2663738_13_0762153_node__80_2656412_13_0763711_node bus1=80_2663738_13_0762153_node.1.2.3 bus2=80_2656412_13_0763711_node.1.2.3 length=81.29972634483536 geometry=5598c4c7-5058-4951-80f9-dfb89abcfcb1_linegeometry units=m

new line.80_278861_13_089168_node__80_2788984_13_0892892_node bus1=80_278861_13_089168_node.1.2.3 bus2=80_2788984_13_0892892_node.1.2.3 length=14.00850420874556 geometry=5598c4c7-5058-4951-80f9-dfb89abcfcb1_linegeometry units=m

new line.80_27665028099061_13_086975703292442_node__80_275732_13_087058_node bus1=80_27665028099061_13_086975703292442_node.1.2.3 bus2=80_275732_13_087058_node.1.2.3 length=99.9999976227517 geometry=5598c4c7-5058-4951-80f9-dfb89abcfcb1_linegeometry units=m

new line.80_2658973_13_0911171_node__80_266061_13_0910178_node bus1=80_2658973_13_0911171_node.1.2.3 bus2=80_266061_13_0910178_node.1.2.3 length=20.876661447615955 geometry=5598c4c7-5058-4951-80f9-dfb89abcfcb1_linegeometry units=m

new line.80_2658973_13_0911171_node__80_265979_13_0917759_node bus1=80_2658973_13_0911171_node.1.2.3 bus2=80_265979_13_0917759_node.1.2.3 length=73.42042206654831 geometry=5598c4c7-5058-4951-80f9-dfb89abcfcb1_linegeometry units=m

new line.80_2633469_13_0780729_node__80_2632543_13_0782011_node bus1=80_2633469_13_0780729_node.1.2.3 bus2=80_2632543_13_0782011_node.1.2.3 length=17.37836524335698 geometry=5598c4c7-5058-4951-80f9-dfb89abcfcb1_linegeometry units=m

new line.80_2778554_13_0900371_node__80_2772716_13_0904194_node bus1=80_2778554_13_0900371_node.1.2.3 bus2=80_2772716_13_0904194_node.1.2.3 length=76.13817997469401 geometry=5598c4c7-5058-4951-80f9-dfb89abcfcb1_linegeometry units=m

new line.80_2756048_13_0880409_node__80_2759853_13_0880744_node bus1=80_2756048_13_0880409_node.1.2.3 bus2=80_2759853_13_0880744_node.1.2.3 length=41.429948816708645 geometry=5598c4c7-5058-4951-80f9-dfb89abcfcb1_linegeometry units=m

new line.80_26412513371356_13_090173697206145_node__80_2632078_13_0902657_node bus1=80_26412513371356_13_090173697206145_node.1.2.3 bus2=80_2632078_13_0902657_node.1.2.3 length=99.9999999598047 geometry=5598c4c7-5058-4951-80f9-dfb89abcfcb1_linegeometry units=m

new line.80_263309_13_0882537_node__80_26326606475199_13_088102427621518_node bus1=80_263309_13_0882537_node.1.2.3 bus2=80_26326606475199_13_088102427621518_node.1.2.3 length=17.371103120373927 geometry=5598c4c7-5058-4951-80f9-dfb89abcfcb1_linegeometry units=m

new line.80_26504524074234_13_087879293224079_node__80_2659222_13_0875999_node bus1=80_26504524074234_13_087879293224079_node.1.2.3 bus2=80_2659222_13_0875999_node.1.2.3 length=100.0000958604405 geometry=5598c4c7-5058-4951-80f9-dfb89abcfcb1_linegeometry units=m

new line.80_26504524074234_13_087879293224079_node__80_26416828148467_13_088158686448155_node bus1=80_26504524074234_13_087879293224079_node.1.2.3 bus2=80_26416828148467_13_088158686448155_node.1.2.3 length=99.99999418052455 geometry=5598c4c7-5058-4951-80f9-dfb89abcfcb1_linegeometry units=m

new line.80_2711155384945_13_083784421424092_node__80_27182796924724_13_083210560712045_node bus1=80_2711155384945_13_083784421424092_node.1.2.3 bus2=80_27182796924724_13_083210560712045_node.1.2.3 length=99.99998106508073 geometry=5598c4c7-5058-4951-80f9-dfb89abcfcb1_linegeometry units=m

new line.80_2785_13_0904971_node__80_2786311_13_0912658_htnode bus1=80_2785_13_0904971_node.1.2.3 bus2=80_2786311_13_0912658_htnode.1.2.3 length=86.22245637385758 geometry=5598c4c7-5058-4951-80f9-dfb89abcfcb1_linegeometry units=m

new line.80_2785_13_0904971_node__80_2790662_13_0903945_node bus1=80_2785_13_0904971_node.1.2.3 bus2=80_2790662_13_0903945_node.1.2.3 length=62.44209113025869 geometry=5598c4c7-5058-4951-80f9-dfb89abcfcb1_linegeometry units=m

new line.80_2658971_13_0903132_node__80_2661759_13_0908147_node bus1=80_2658971_13_0903132_node.1.2.3 bus2=80_2661759_13_0908147_node.1.2.3 length=63.18491140996299 geometry=5598c4c7-5058-4951-80f9-dfb89abcfcb1_linegeometry units=m

new line.80_268966_13_0792928_node__80_26964187156807_13_07907927070125_node bus1=80_268966_13_0792928_node.1.2.3 bus2=80_26964187156807_13_07907927070125_node.1.2.3 length=77.01109058950193 geometry=5598c4c7-5058-4951-80f9-dfb89abcfcb1_linegeometry units=m

new line.80_2643199_13_0758278_node__80_2642009_13_0755906_node bus1=80_2643199_13_0758278_node.1.2.3 bus2=80_2642009_13_0755906_node.1.2.3 length=29.243558782883998 geometry=5598c4c7-5058-4951-80f9-dfb89abcfcb1_linegeometry units=m

new line.80_2643199_13_0758278_node__80_264186_13_0756661_node bus1=80_2643199_13_0758278_node.1.2.3 bus2=80_264186_13_0756661_node.1.2.3 length=23.041218657999575 geometry=5598c4c7-5058-4951-80f9-dfb89abcfcb1_linegeometry units=m

new line.80_264186_13_0756661_node__80_2641659991362_13_076569791997125_htnode bus1=80_264186_13_0756661_node.1.2.3 bus2=80_2641659991362_13_076569791997125_htnode.1.2.3 length=99.99999967651272 geometry=5598c4c7-5058-4951-80f9-dfb89abcfcb1_linegeometry units=m

new line.80_2656412_13_0763711_node__80_2654658_13_0763314_node bus1=80_2656412_13_0763711_node.1.2.3 bus2=80_2654658_13_0763314_node.1.2.3 length=19.522847536103306 geometry=5598c4c7-5058-4951-80f9-dfb89abcfcb1_linegeometry units=m

new line.80_266061_13_0910178_node__80_2661759_13_0908147_node bus1=80_266061_13_0910178_node.1.2.3 bus2=80_2661759_13_0908147_node.1.2.3 length=25.692909017383673 geometry=5598c4c7-5058-4951-80f9-dfb89abcfcb1_linegeometry units=m

new line.80_2695276_13_0748603_node__80_269017_13_0749793_node bus1=80_2695276_13_0748603_node.1.2.3 bus2=80_269017_13_0749793_node.1.2.3 length=56.91909145940445 geometry=5598c4c7-5058-4951-80f9-dfb89abcfcb1_linegeometry units=m

new line.80_27753348962094_13_085402160736605_node__80_2774657_13_0848361_htnode bus1=80_27753348962094_13_085402160736605_node.1.2.3 bus2=80_2774657_13_0848361_htnode.1.2.3 length=63.05402406144679 geometry=5598c4c7-5058-4951-80f9-dfb89abcfcb1_linegeometry units=m

new line.80_26515135567274_13_076163341394066_node__80_2643421_13_0757301_node bus1=80_26515135567274_13_076163341394066_node.1.2.3 bus2=80_2643421_13_0757301_node.1.2.3 length=100.00001012781154 geometry=5598c4c7-5058-4951-80f9-dfb89abcfcb1_linegeometry units=m

new line.80_2642009_13_0755906_node__80_2643421_13_0757301_node bus1=80_2642009_13_0755906_node.1.2.3 bus2=80_2643421_13_0757301_node.1.2.3 length=21.74117855828574 geometry=5598c4c7-5058-4951-80f9-dfb89abcfcb1_linegeometry units=m

new line.80_26517598204053_13_084478128369039_node__80_2660837_13_0843191_node bus1=80_26517598204053_13_084478128369039_node.1.2.3 bus2=80_2660837_13_0843191_node.1.2.3 length=100.00000083390155 geometry=5598c4c7-5058-4951-80f9-dfb89abcfcb1_linegeometry units=m

new line.80_26517598204053_13_084478128369039_node__80_2651516_13_0844824_htnode bus1=80_26517598204053_13_084478128369039_node.1.2.3 bus2=80_2651516_13_0844824_htnode.1.2.3 length=2.68608026458555 geometry=5598c4c7-5058-4951-80f9-dfb89abcfcb1_linegeometry units=m

...