examples/opendss/loads.dss
new load.80_26328177683148_13_076659339528064_load phases=1 bus1=80_26316584534585_13_076715650689922_node_secondary_7.3.0 kv=0.24 kw=0.63 pf=1.0 conn=wye

new load.80_2684192_13_0832803_load phases=1 bus1=80_26853222119114_13_083337901996748_node_secondary_1.1.0 kv=0.24 kw=0.825 pf=1.0 conn=wye

new load.80_26386409999999_13_089069199999999_load phases=1 bus1=80_26394017945101_13_089032793333333__secondary_12_node.2.0 kv=0.24 kw=0.5850000000000001 pf=1.0 conn=wye

new load.80_2784003_13_087749300000004_load phases=1 bus1=80_27853245549284_13_087878127586002_node_secondary_9.2.0 kv=0.24 kw=0.885 pf=1.0 conn=wye

new load.80_26767112541775_13_086270911099636_load phases=1 bus1=80_26779348547299_13_086087117034493_node_secondary_0.2.0 kv=0.24 kw=14.625 pf=1.0 conn=wye

new load.80_26264599783231_13_090788329112257_load phases=1 bus1=80_26272001364794_13_090614197225399__secondary_8_node.3.0 kv=0.24 kw=1.365 pf=1.0 conn=wye

new load.80_26108135_13_092489300000002_load phases=1 bus1=80_2608777_13_092453559958336__secondary_8_node.3.0 kv=0.24 kw=1.0799999999999998 pf=1.0 conn=wye

new load.80_27573676046116_13_09184622042019_load phases=1 bus1=80_27566749181237_13_091974180677301_node_secondary_15.1.0 kv=0.24 kw=0.9 pf=1.0 conn=wye

new load.80_27073064999999_13_076526600000001_load phases=1 bus1=80_2706235_13_0765991_node_secondary_16.2.0 kv=0.24 kw=0.8400000000000001 pf=1.0 conn=wye

new load.80_27030670031616_13_078586538708159_load phases=1 bus1=80_27021142359456_13_078727160445217_node_secondary_16.2.0 kv=0.24 kw=1.65 pf=1.0 conn=wye

new load.80_27943698238782_13_088465954546932_load phases=1 bus1=80_27952065000001_13_088594911822883__secondary_9_node.1.0 kv=0.24 kw=0.5549999999999999 pf=1.0 conn=wye

new load.80_26345485_13_090449199999997_load phases=1 bus1=80_26350134678835_13_090236259105966_node_secondary_8.2.0 kv=0.24 kw=1.7849999999999997 pf=1.0 conn=wye

new load.80_27600766955872_13_091432690936113_load phases=1 bus1=80_2760009057824_13_091520681032982__secondary_15_node.2.0 kv=0.24 kw=0.975 pf=1.0 conn=wye

new load.80_26659595_13_07987125_load phases=1 bus1=80_26652140109746_13_07985759973849__secondary_6_node.3.0 kv=0.24 kw=1.395 pf=1.0 conn=wye

new load.80_26689892464314_13_08865235149497_load phases=1 bus1=80_2670455_13_0885754_node_secondary_4.2.0 kv=0.24 kw=0.645 pf=1.0 conn=wye

new load.80_26636735_13_090571800000001_load phases=1 bus1=80_2662528_13_0903822_node_secondary_5.1.0 kv=0.24 kw=1.605 pf=1.0 conn=wye

new load.80_27841724999999_13_085212049999999_load phases=1 bus1=80_2783108_13_0853304_node_secondary_18.1.0 kv=0.24 kw=0.795 pf=1.0 conn=wye

new load.80_27698656583965_13_085444824176912_load phases=1 bus1=80_27709192620759_13_085561376724232__secondary_18_node.2.0 kv=0.24 kw=1.3050000000000002 pf=1.0 conn=wye

new load.80_26359155822924_13_0774000267008_load phases=1 bus1=80_26383837146123_13_077483550898679_node_secondary_7.2.0 kv=0.24 kw=3.7649999999999997 pf=1.0 conn=wye

new load.80_2639099366395_13_074878324191287_load phases=1 bus1=80_26389663333335_13_074666787402796__secondary_7_node.2.0 kv=0.24 kw=0.48 pf=1.0 conn=wye

new load.80_27092635914691_13_078276570791864_load phases=1 bus1=80_27103854133333_13_078216078009913_node_secondary_16.1.0 kv=0.24 kw=0.8699999999999999 pf=1.0 conn=wye

new load.80_26904927465947_13_077217292449339_load phases=1 bus1=80_26889735007474_13_077220523174397_node_secondary_13.2.0 kv=0.24 kw=1.2449999999999999 pf=1.0 conn=wye

new load.80_27678576547231_13_088749053384038_load phases=1 bus1=80_2767362_13_0887765_node_secondary_2.1.0 kv=0.24 kw=0.375 pf=1.0 conn=wye

new load.80_27022292411465_13_081936646578155_load phases=1 bus1=80_2703325_13_0817604_node_secondary_1.1.0 kv=0.24 kw=1.215 pf=1.0 conn=wye

new load.80_27813125000002_13_085916700000002_load phases=1 bus1=80_27799206784356_13_085869224396657__secondary_18_node.3.0 kv=0.24 kw=0.615 pf=1.0 conn=wye

new load.80_27805790645596_13_085732623669998_load phases=1 bus1=80_27799206784356_13_085869224396657__secondary_18_node.3.0 kv=0.24 kw=0.525 pf=1.0 conn=wye

new load.80_26169701610604_13_082854268098828_load phases=1 bus1=80_26165682324071_13_082728535759676_node_secondary_10.1.0 kv=0.24 kw=1.26 pf=1.0 conn=wye

new load.80_26751000067294_13_089113229607621_load phases=1 bus1=80_26750750053284_13_089122274836118__secondary_4_node.3.0 kv=0.24 kw=0.5850000000000001 pf=1.0 conn=wye

new load.80_26682585_13_090886050000002_load phases=1 bus1=80_2669631_13_0908592_node_secondary_5.2.0 kv=0.24 kw=1.125 pf=1.0 conn=wye

new load.80_27509117518183_13_091878958218924_load phases=1 bus1=80_27521914622831_13_09199790521182_node_secondary_15.3.0 kv=0.24 kw=0.9 pf=1.0 conn=wye

new load.80_26968981253714_13_082520876513424_load phases=1 bus1=80_2696199_13_0824585_node_secondary_1.3.0 kv=0.24 kw=0.39 pf=1.0 conn=wye

new load.80_26349545000001_13_089410099999997_load phases=1 bus1=80_2636396715059_13_08932532__secondary_12_node.1.0 kv=0.24 kw=0.615 pf=1.0 conn=wye

new load.80_26494034109642_13_075420225481357_load phases=1 bus1=80_26479049333334_13_075583312768057__secondary_7_node.3.0 kv=0.24 kw=0.21000000000000002 pf=1.0 conn=wye

new load.80_26340886677569_13_08370119820182_load phases=1 bus1=80_26343530954449_13_083580779129472__secondary_10_node.1.0 kv=0.24 kw=2.175 pf=1.0 conn=wye

new load.80_27165813097712_13_07571045106763_load phases=1 bus1=80_27181965004333_13_07583891145437__secondary_16_node.3.0 kv=0.24 kw=1.0799999999999998 pf=1.0 conn=wye

new load.80_27704765000001_13_087577_load phases=1 bus1=80_2769357_13_0876153_node_secondary_2.1.0 kv=0.24 kw=0.495 pf=1.0 conn=wye

new load.80_26115612346219_13_088596160242632_load phases=1 bus1=80_2612356079451_13_088740266666667__secondary_12_node.3.0 kv=0.24 kw=1.035 pf=1.0 conn=wye

new load.80_27807952245584_13_087365843944136_load phases=1 bus1=80_27816640189019_13_087356492928947_node_secondary_9.2.0 kv=0.24 kw=0.99 pf=1.0 conn=wye

new load.80_27166679969172_13_085515603331466_load phases=1 bus1=80_27166679969172_13_08561344179513__secondary_0_node.3.0 kv=0.24 kw=111.35000000000001 pf=1.0 conn=wye

new load.80_27143795_13_0771205_load phases=1 bus1=80_27117162983168_13_07704087290874__secondary_16_node.1.0 kv=0.24 kw=1.3050000000000002 pf=1.0 conn=wye

new load.80_26856328714095_13_087625679908907_load phases=1 bus1=80_2684636428911_13_087513573701623_node_secondary_4.3.0 kv=0.24 kw=0.645 pf=1.0 conn=wye

new load.80_2681175265737_13_090978852314967_load phases=1 bus1=80_26789698104324_13_091094882830228_node_secondary_5.1.0 kv=0.24 kw=2.55 pf=1.0 conn=wye

new load.80_27691086304846_13_09254437170129_load phases=1 bus1=80_2769898226192_13_092706350000002__secondary_15_node.3.0 kv=0.24 kw=0.885 pf=1.0 conn=wye

new load.80_26974169565187_13_081113276092767_load phases=1 bus1=80_2696966_13_081055_node_secondary_1.1.0 kv=0.24 kw=0.45 pf=1.0 conn=wye

new load.80_27154639999999_13_075320149999998_load phases=1 bus1=80_27134950036493_13_075297643680361_node_secondary_16.2.0 kv=0.24 kw=0.735 pf=1.0 conn=wye

new load.80_2753814780515_13_085265731373305_load phases=1 bus1=80_27529164293567_13_08525352905181__secondary_18_node.1.0 kv=0.24 kw=12.195000000000002 pf=1.0 conn=wye

new load.80_27118505_13_07810975_load phases=1 bus1=80_27103854133333_13_078216078009913_node_secondary_16.2.0 kv=0.24 kw=0.34500000000000003 pf=1.0 conn=wye

new load.80_27804322210974_13_090301845642012_load phases=1 bus1=80_27790607292066_13_090413735752202_node_secondary_17.1.0 kv=0.24 kw=0.375 pf=1.0 conn=wye

new load.80_26232415000001_13_0923528_load phases=1 bus1=80_2623841_13_0922962_node_secondary_8.1.0 kv=0.24 kw=0.375 pf=1.0 conn=wye

new load.80_27749215_13_09170825_load phases=1 bus1=80_27764807549914_13_091779401682345__secondary_17_node.2.0 kv=0.24 kw=1.215 pf=1.0 conn=wye

new load.80_27608179498701_13_089805675350563_load phases=1 bus1=80_2760009057824_13_089742177582453__secondary_15_node.2.0 kv=0.24 kw=1.1099999999999999 pf=1.0 conn=wye

new load.80_27080660680694_13_088945017951726_load phases=1 bus1=80_27068146333333_13_088901720414537__secondary_14_node.3.0 kv=0.24 kw=52.775000000000006 pf=1.0 conn=wye

new load.80_27835639999999_13_089925299999999_load phases=1 bus1=80_2782533_13_0898529_node_secondary_17.2.0 kv=0.24 kw=1.125 pf=1.0 conn=wye

new load.80_2637655158241_13_076146075168772_load phases=1 bus1=80_26359868_13_076194329678232__secondary_7_node.1.0 kv=0.24 kw=4.05 pf=1.0 conn=wye

new load.80_26638769663663_13_091633026805006_load phases=1 bus1=80_26627400944541_13_09178227534265_node_secondary_5.3.0 kv=0.24 kw=0.525 pf=1.0 conn=wye

new load.80_27529420019208_13_082840116680222_load phases=1 bus1=80_27529164293567_13_082790747672425__secondary_18_node.1.0 kv=0.24 kw=2.88 pf=1.0 conn=wye

new load.80_27574047801848_13_084889189672019_load phases=1 bus1=80_27559169014765_13_084945681379386__secondary_18_node.2.0 kv=0.24 kw=0.8549999999999999 pf=1.0 conn=wye

new load.80_26615302511415_13_082422856315835_load phases=1 bus1=80_2662038583971_13_082212797646413__secondary_6_node.2.0 kv=0.24 kw=1.875 pf=1.0 conn=wye

new load.80_27824907641865_13_080417225603687_load phases=1 bus1=80_27810129413137_13_080499844572968__secondary_3_node.3.0 kv=0.24 kw=6.51 pf=1.0 conn=wye

new load.80_27901051070006_13_084855734026764_load phases=1 bus1=80_2790757148908_13_08485647926754_node_secondary_18.2.0 kv=0.24 kw=0.3 pf=1.0 conn=wye

new load.80_2725810848892_13_07563125957708_load phases=1 bus1=80_2726003382511_13_07576365027075_node_secondary_11.1.0 kv=0.24 kw=0.6 pf=1.0 conn=wye

new load.80_27829099999998_13_0844069_load phases=1 bus1=80_2782072402097_13_084468610616621_node_secondary_18.3.0 kv=0.24 kw=0.8100000000000002 pf=1.0 conn=wye

new load.80_27734522719868_13_084540806134664_load phases=1 bus1=80_277288395225_13_084557211095726_node_secondary_18.3.0 kv=0.24 kw=0.63 pf=1.0 conn=wye

new load.80_26930877658904_13_08860395728302_load phases=1 bus1=80_2691979_13_088458_node_secondary_4.3.0 kv=0.24 kw=3.0 pf=1.0 conn=wye

new load.80_27183579999999_13_077118599999999_load phases=1 bus1=80_2717539_13_077053_node_secondary_16.2.0 kv=0.24 kw=0.645 pf=1.0 conn=wye

new load.80_2692131_13_0832266_load phases=1 bus1=80_26910244672972_13_08329167499725_node_secondary_1.1.0 kv=0.24 kw=0.915 pf=1.0 conn=wye

new load.80_26128510000001_13_091246599999996_load phases=1 bus1=80_2612916660236_13_091146407627221_node_secondary_8.1.0 kv=0.24 kw=0.915 pf=1.0 conn=wye

new load.80_27010225851694_13_075737104162496_load phases=1 bus1=80_27016034882371_13_075891993997256_node_secondary_16.3.0 kv=0.24 kw=4.245 pf=1.0 conn=wye

new load.80_27713659939067_13_082553439890962_load phases=1 bus1=80_27709192620759_13_082482900000002__secondary_18_node.2.0 kv=0.24 kw=37.805 pf=1.0 conn=wye

new load.80_27722229999999_13_0853329_load phases=1 bus1=80_2772479_13_0850934_node_secondary_18.3.0 kv=0.24 kw=1.56 pf=1.0 conn=wye

new load.80_27008317257467_13_085251974106733_load phases=1 bus1=80_2699852_13_0853005_node_secondary_0.3.0 kv=0.24 kw=0.765 pf=1.0 conn=wye

new load.80_27905707307482_13_091509892726972_load phases=1 bus1=80_27896904596794_13_091430096053088_node_secondary_17.2.0 kv=0.24 kw=0.6900000000000001 pf=1.0 conn=wye

new load.80_27574114730183_13_07876317716261_load phases=1 bus1=80_27565310482963_13_078739237829186__secondary_3_node.3.0 kv=0.24 kw=0.675 pf=1.0 conn=wye

new load.80_2699907_13_085807349999998_load phases=1 bus1=80_2698872_13_0859358_node_secondary_0.1.0 kv=0.24 kw=2.37 pf=1.0 conn=wye

new load.80_27005595_13_084209650000002_load phases=1 bus1=80_26994087227035_13_084265049999999__secondary_1_node.3.0 kv=0.24 kw=0.915 pf=1.0 conn=wye

new load.80_26571356399461_13_082697261721375_load phases=1 bus1=80_26574000650152_13_082872308929717_node_secondary_6.3.0 kv=0.24 kw=4.7700000000000005 pf=1.0 conn=wye

new load.80_27564355000001_13_0910751_load phases=1 bus1=80_2756712668368_13_090927846549473__secondary_15_node.3.0 kv=0.24 kw=1.7849999999999997 pf=1.0 conn=wye

new load.80_27186585067454_13_07632976988135_load phases=1 bus1=80_27160950182468_13_07642621840181_node_secondary_16.1.0 kv=0.24 kw=4.65 pf=1.0 conn=wye

new load.80_26270547145897_13_08332333646908_load phases=1 bus1=80_26266011091398_13_083206854917501_node_secondary_10.1.0 kv=0.24 kw=1.845 pf=1.0 conn=wye

new load.80_27058185876326_13_08269809424479_load phases=1 bus1=80_27048273851028_13_082801326924303_node_secondary_1.2.0 kv=0.24 kw=2.82 pf=1.0 conn=wye

new load.80_26235728537571_13_085490739720429_load phases=1 bus1=80_26235728537571_13_085268155298722__secondary_19_node.3.0 kv=0.24 kw=1.3050000000000002 pf=1.0 conn=wye

new load.80_26708177536358_13_081416196013247_load phases=1 bus1=80_26691102035144_13_081429090690847_node_secondary_6.1.0 kv=0.24 kw=1.35 pf=1.0 conn=wye

new load.80_26829067251495_13_083146754312594_load phases=1 bus1=80_26820926692928_13_083064965374966_node_secondary_6.1.0 kv=0.24 kw=0.78 pf=1.0 conn=wye

new load.80_27795022789118_13_078516819353773_load phases=1 bus1=80_27810129413137_13_078445803371888__secondary_3_node.2.0 kv=0.24 kw=0.43499999999999994 pf=1.0 conn=wye

new load.80_26912258684096_13_078613825259742_load phases=1 bus1=80_2689357_13_0786929_node_secondary_13.2.0 kv=0.24 kw=0.765 pf=1.0 conn=wye

new load.80_2761925226584_13_086641437889593_load phases=1 bus1=80_27628538458073_13_086580913080844__secondary_2_node.3.0 kv=0.24 kw=1.155 pf=1.0 conn=wye

new load.80_27551425_13_0756649_load phases=1 bus1=80_27553684333333_13_07581163703291__secondary_11_node.1.0 kv=0.24 kw=8.34 pf=1.0 conn=wye

new load.80_27810232201323_13_091201895931098_load phases=1 bus1=80_27802181823017_13_091274033938051_node_secondary_17.1.0 kv=0.24 kw=0.5850000000000001 pf=1.0 conn=wye

new load.80_26514007478916_13_075360004728765_load phases=1 bus1=80_26505032506797_13_0752082097981_node_secondary_7.2.0 kv=0.24 kw=0.6 pf=1.0 conn=wye

new load.80_2670373_13_0804479_load phases=1 bus1=80_2671564864982_13_080446399215472__secondary_6_node.2.0 kv=0.24 kw=0.8699999999999999 pf=1.0 conn=wye

new load.80_27680869999999_13_09226265_load phases=1 bus1=80_2768935_13_0921676_node_secondary_15.3.0 kv=0.24 kw=1.3800000000000001 pf=1.0 conn=wye

new load.80_26671199999998_13_087435200000003_load phases=1 bus1=80_26680193095034_13_08732145722115_node_secondary_4.3.0 kv=0.24 kw=0.795 pf=1.0 conn=wye

new load.80_26734859999999_13_090686149999998_load phases=1 bus1=80_267394_13_0908438_node_secondary_5.1.0 kv=0.24 kw=1.215 pf=1.0 conn=wye

new load.80_27665496315849_13_083979525566654_load phases=1 bus1=80_27679155554605_13_083989940189905_node_secondary_18.1.0 kv=0.24 kw=1.65 pf=1.0 conn=wye

new load.80_26255515_13_0927192_load phases=1 bus1=80_26241296137329_13_092760120413827__secondary_8_node.1.0 kv=0.24 kw=0.5399999999999999 pf=1.0 conn=wye

new load.80_26908049133834_13_08164117722701_load phases=1 bus1=80_26895863160138_13_081648507840143_node_secondary_1.1.0 kv=0.24 kw=0.705 pf=1.0 conn=wye

new load.80_26255935881284_13_083418574700909_load phases=1 bus1=80_26243147809066_13_083520615105462_node_secondary_10.1.0 kv=0.24 kw=0.975 pf=1.0 conn=wye

new load.80_26962721568347_13_084041174867323_load phases=1 bus1=80_2697754_13_0838969_node_secondary_1.1.0 kv=0.24 kw=0.675 pf=1.0 conn=wye

new load.80_27320491552788_13_080593380716332_load phases=1 bus1=80_27320491552788_13_080499844572968__secondary_3_node.1.0 kv=0.24 kw=10.440000000000001 pf=1.0 conn=wye

new load.80_27008957367119_13_083553871974052_load phases=1 bus1=80_27006817537524_13_08342497710386_node_secondary_1.2.0 kv=0.24 kw=1.1400000000000001 pf=1.0 conn=wye

new load.80_27601215847295_13_085473920068763_load phases=1 bus1=80_2758969_13_0855399_node_secondary_18.3.0 kv=0.24 kw=0.915 pf=1.0 conn=wye

new load.80_27014417794483_13_081509602683_load phases=1 bus1=80_2701304993304_13_081345432804836_node_secondary_1.3.0 kv=0.24 kw=1.1400000000000001 pf=1.0 conn=wye

new load.80_2761846714497_13_092122839345315_load phases=1 bus1=80_2761519_13_0922051_node_secondary_15.3.0 kv=0.24 kw=0.5399999999999999 pf=1.0 conn=wye

new load.80_2759433737798_13_092497997194716_load phases=1 bus1=80_2760009057824_13_092706350000002__secondary_15_node.3.0 kv=0.24 kw=0.6900000000000001 pf=1.0 conn=wye

new load.80_26770239999998_13_080921600000002_load phases=1 bus1=80_26777235703233_13_080768297191359_node_secondary_6.1.0 kv=0.24 kw=0.735 pf=1.0 conn=wye

new load.80_26222765_13_0746829_load phases=1 bus1=80_26210891333334_13_074666787402796__secondary_7_node.1.0 kv=0.24 kw=2.82 pf=1.0 conn=wye

new load.80_2713537857593_13_07469072899402_load phases=1 bus1=80_2714956399375_13_07463695__secondary_16_node.1.0 kv=0.24 kw=1.02 pf=1.0 conn=wye

new load.80_26367060911767_13_091670722043919_load phases=1 bus1=80_26367_13_0914875_node_secondary_8.1.0 kv=0.24 kw=0.735 pf=1.0 conn=wye

new load.80_2630675942024_13_092751828830117_load phases=1 bus1=80_2630270659226_13_092760120413827__secondary_8_node.2.0 kv=0.24 kw=1.05 pf=1.0 conn=wye

new load.80_26916863680407_13_083763078027918_load phases=1 bus1=80_26912364687743_13_083581789561459_node_secondary_1.2.0 kv=0.24 kw=0.8549999999999999 pf=1.0 conn=wye

new load.80_26858518140425_13_082203110993591_load phases=1 bus1=80_26858177277248_13_08219821727686_node_secondary_6.2.0 kv=0.24 kw=1.2 pf=1.0 conn=wye

new load.80_26911267723887_13_083878629746852_load phases=1 bus1=80_26902786890814_13_083955217293912__secondary_1_node.1.0 kv=0.24 kw=1.0050000000000001 pf=1.0 conn=wye

new load.80_26916949354468_13_075233678548544_load phases=1 bus1=80_2691024950462_13_075256141101962_node_secondary_13.3.0 kv=0.24 kw=0.32999999999999996 pf=1.0 conn=wye

new load.80_27590145_13_089340900000002_load phases=1 bus1=80_27601116505433_13_089443826530596_node_secondary_2.1.0 kv=0.24 kw=1.2 pf=1.0 conn=wye

new load.80_27571907703356_13_085056388685084_load phases=1 bus1=80_27559169014765_13_084945681379386__secondary_18_node.1.0 kv=0.24 kw=1.155 pf=1.0 conn=wye

new load.80_26724349999999_13_08937065_load phases=1 bus1=80_26706939302561_13_089433288590104_node_secondary_4.1.0 kv=0.24 kw=0.8400000000000001 pf=1.0 conn=wye

new load.80_27606259685001_13_091621880497554_load phases=1 bus1=80_2760009057824_13_091520681032982__secondary_15_node.3.0 kv=0.24 kw=1.23 pf=1.0 conn=wye

new load.80_2627242797884_13_083658765903479_load phases=1 bus1=80_26274235667765_13_083492942449102_node_secondary_10.1.0 kv=0.24 kw=0.825 pf=1.0 conn=wye

new load.80_2642698018371_13_089589672349653_load phases=1 bus1=80_26424068739611_13_089617846666666__secondary_12_node.3.0 kv=0.24 kw=0.93 pf=1.0 conn=wye

new load.80_2706923_13_0763414_load phases=1 bus1=80_27084761972586_13_076139401817962__secondary_16_node.2.0 kv=0.24 kw=1.05 pf=1.0 conn=wye

new load.80_2656925_13_08850945_load phases=1 bus1=80_26591608046044_13_088434473123256_node_secondary_4.1.0 kv=0.24 kw=1.05 pf=1.0 conn=wye

new load.80_27911753437179_13_089498828599197_load phases=1 bus1=80_27919197936913_13_08937731214867_node_secondary_9.3.0 kv=0.24 kw=3.0749999999999997 pf=1.0 conn=wye

new load.80_27184545_13_077224150000001_load phases=1 bus1=80_271782_13_0772843_node_secondary_16.2.0 kv=0.24 kw=0.6 pf=1.0 conn=wye

new load.80_26932059211019_13_076465924733718_load phases=1 bus1=80_26946215_13_076420359702082__secondary_13_node.3.0 kv=0.24 kw=0.6900000000000001 pf=1.0 conn=wye

new load.80_26828358699566_13_089927422442626_load phases=1 bus1=80_26840813856094_13_08999684978149__secondary_4_node.2.0 kv=0.24 kw=1.215 pf=1.0 conn=wye

new load.80_27909619999998_13_084422349999999_load phases=1 bus1=80_27921273454518_13_084485429420837_node_secondary_18.3.0 kv=0.24 kw=0.675 pf=1.0 conn=wye

new load.80_27527919966789_13_082490407858343_load phases=1 bus1=80_27535525819904_13_082267789194505_node_secondary_3.1.0 kv=0.24 kw=1.0050000000000001 pf=1.0 conn=wye

new load.80_26338580000001_13_083007399999998_load phases=1 bus1=80_2632213_13_0831465_node_secondary_10.1.0 kv=0.24 kw=2.505 pf=1.0 conn=wye

new load.80_26639145_13_083150450000002_load phases=1 bus1=80_26652140109746_13_083095996861884__secondary_6_node.2.0 kv=0.24 kw=0.375 pf=1.0 conn=wye

new load.80_27586287444377_13_080841929373177_load phases=1 bus1=80_27595912849235_13_080793279030264__secondary_3_node.2.0 kv=0.24 kw=27.520000000000003 pf=1.0 conn=wye

new load.80_2648131_13_085595250000003_load phases=1 bus1=80_26480668816025_13_085467898550862_node_secondary_19.3.0 kv=0.24 kw=0.645 pf=1.0 conn=wye

new load.80_26941074999999_13_075856300000002_load phases=1 bus1=80_26925887349363_13_075788640128232_node_secondary_13.2.0 kv=0.24 kw=0.915 pf=1.0 conn=wye

new load.80_27143949295584_13_075123231452373_load phases=1 bus1=80_2712845_13_0750155_node_secondary_16.1.0 kv=0.24 kw=1.44 pf=1.0 conn=wye

new load.80_26378387304104_13_075764885483565_load phases=1 bus1=80_26359868_13_075888821223145__secondary_7_node.1.0 kv=0.24 kw=1.7849999999999997 pf=1.0 conn=wye

new load.80_27869204945577_13_084919791146271_load phases=1 bus1=80_2786345_13_0846666_node_secondary_18.1.0 kv=0.24 kw=0.5399999999999999 pf=1.0 conn=wye

new load.80_26820025_13_085360949999998_load phases=1 bus1=80_26821368972615_13_08548225556782_node_secondary_0.2.0 kv=0.24 kw=2.5349999999999997 pf=1.0 conn=wye

new load.80_26655712575291_13_08338411434361_load phases=1 bus1=80_26654722716256_13_083468969616298_node_secondary_6.3.0 kv=0.24 kw=0.34500000000000003 pf=1.0 conn=wye

new load.80_26396027881651_13_091603954516819_load phases=1 bus1=80_2639484_13_0917052_node_secondary_8.3.0 kv=0.24 kw=1.4549999999999998 pf=1.0 conn=wye

new load.80_27232642262858_13_074927386639287_load phases=1 bus1=80_27216631547797_13_074914039154693_node_secondary_11.1.0 kv=0.24 kw=1.7399999999999998 pf=1.0 conn=wye

...